<<<<<<< HEAD
ROMS/TOMS Framework: February 6, 2019
===================

Copyright (c) 2002-2019 The ROMS/TOMS Group
=======
ROMS/TOMS Framework: Mar 10, 2020
===================

Copyright (c) 2002-2020 The ROMS/TOMS Group
>>>>>>> b1b191b5bc4e1e579b5a1fc399451b14a647f834
  Licensed under a MIT/X style license
  See License_ROMS.txt

svn: $HeadURL: https://www.myroms.org/svn/src/trunk/ROMS/Version $
svn: $LastChangedBy: arango $
<<<<<<< HEAD
svn: $LastChangedRevision: 948 $
svn: $LastChangedDate: 2019-02-06 22:33:28 -0500 (Wed, 06 Feb 2019) $
=======
svn: $LastChangedRevision: 1013 $
svn: $LastChangedDate: 2020-03-10 21:46:00 -0400 (Tue, 10 Mar 2020) $
>>>>>>> b1b191b5bc4e1e579b5a1fc399451b14a647f834
