 Ntasks in X            1 , ntasks in Y            1
WRF V4.0.3 MODEL
 *************************************
 Parent domain
 ids,ide,jds,jde            1          85           1          82
 ims,ime,jms,jme           -4          90          -4          87
 ips,ipe,jps,jpe            1          85           1          82
 *************************************
DYNAMICS OPTION: Eulerian Mass Coordinate
 alloc_space_field: domain            1 ,             239569084  bytes allocated
med_initialdata_input: calling input_input
 Input data is acceptable to use: wrfinput_d01
Timing for processing wrfinput file (stream 0) for domain        1:    0.09248 elapsed seconds
Max map factor in domain 1 =  1.02. Scale the dt in the model accordingly.
INPUT LandUse = "MODIFIED_IGBP_MODIS_NOAH"
 LANDUSE TYPE = "MODIFIED_IGBP_MODIS_NOAH" FOUND          33  CATEGORIES           2  SEASONS WATER CATEGORY =           17  SNOW CATEGORY =           15
INITIALIZE THREE Noah LSM RELATED TABLES
Skipping over LUTYPE = USGS
 LANDUSE TYPE = MODIFIED_IGBP_MODIS_NOAH FOUND          20  CATEGORIES
 INPUT SOIL TEXTURE CLASSIFICATION = STAS
 SOIL TEXTURE CLASSIFICATION = STAS FOUND          19  CATEGORIES
Timing for Writing wrfout_d01_2012-10-28_12:00:00 for domain        1:    0.97872 elapsed seconds
 Input data is acceptable to use: wrflowinp_d01
Input data processed for aux input   4 for domain   1
 Input data is acceptable to use: wrfbdy_d01
Timing for processing lateral boundary for domain        1:    0.03003 elapsed seconds
WRF NUMBER OF TILES FROM OMP_GET_MAX_THREADS =   2
 Tile Strategy is not specified. Assuming 1D-Y
WRF TILE   1 IS      1 IE     85 JS      1 JE     41
WRF TILE   2 IS      1 IE     85 JS     42 JE     82
WRF NUMBER OF TILES =   2
Timing for main: time 2012-10-28_12:03:00 on domain   1:    2.26524 elapsed seconds
Timing for main: time 2012-10-28_12:06:00 on domain   1:    0.62986 elapsed seconds
Timing for main: time 2012-10-28_12:09:00 on domain   1:    0.58067 elapsed seconds
Timing for main: time 2012-10-28_12:12:00 on domain   1:    0.66009 elapsed seconds
Timing for main: time 2012-10-28_12:15:00 on domain   1:    0.56853 elapsed seconds
Timing for main: time 2012-10-28_12:18:00 on domain   1:    0.55212 elapsed seconds
Timing for main: time 2012-10-28_12:21:00 on domain   1:    0.59164 elapsed seconds
Timing for main: time 2012-10-28_12:24:00 on domain   1:    0.69187 elapsed seconds
Timing for main: time 2012-10-28_12:27:00 on domain   1:    0.63165 elapsed seconds
Timing for main: time 2012-10-28_12:30:00 on domain   1:    0.68461 elapsed seconds
Timing for Writing wrfout_d01_2012-10-28_12:30:00 for domain        1:    0.83084 elapsed seconds
Timing for main: time 2012-10-28_12:33:00 on domain   1:    1.98077 elapsed seconds
Timing for main: time 2012-10-28_12:36:00 on domain   1:    0.56471 elapsed seconds
Timing for main: time 2012-10-28_12:39:00 on domain   1:    0.64026 elapsed seconds
Timing for main: time 2012-10-28_12:42:00 on domain   1:    0.70961 elapsed seconds
Timing for main: time 2012-10-28_12:45:00 on domain   1:    0.63747 elapsed seconds
Timing for main: time 2012-10-28_12:48:00 on domain   1:    0.57591 elapsed seconds
Timing for main: time 2012-10-28_12:51:00 on domain   1:    0.57960 elapsed seconds
Timing for main: time 2012-10-28_12:54:00 on domain   1:    0.62024 elapsed seconds
Timing for main: time 2012-10-28_12:57:00 on domain   1:    0.59486 elapsed seconds
Timing for main: time 2012-10-28_13:00:00 on domain   1:    0.60372 elapsed seconds
Timing for Writing wrfout_d01_2012-10-28_13:00:00 for domain        1:    1.06613 elapsed seconds
Timing for main: time 2012-10-28_13:03:00 on domain   1:    2.55208 elapsed seconds
Timing for main: time 2012-10-28_13:06:00 on domain   1:    0.71841 elapsed seconds
Timing for main: time 2012-10-28_13:09:00 on domain   1:    0.52455 elapsed seconds
Timing for main: time 2012-10-28_13:12:00 on domain   1:    0.60929 elapsed seconds
Timing for main: time 2012-10-28_13:15:00 on domain   1:    0.53316 elapsed seconds
Timing for main: time 2012-10-28_13:18:00 on domain   1:    0.58454 elapsed seconds
Timing for main: time 2012-10-28_13:21:00 on domain   1:    0.53315 elapsed seconds
Timing for main: time 2012-10-28_13:24:00 on domain   1:    0.58191 elapsed seconds
Timing for main: time 2012-10-28_13:27:00 on domain   1:    0.55554 elapsed seconds
Timing for main: time 2012-10-28_13:30:00 on domain   1:    0.72993 elapsed seconds
Timing for Writing wrfout_d01_2012-10-28_13:30:00 for domain        1:    1.10826 elapsed seconds
Timing for main: time 2012-10-28_13:33:00 on domain   1:    2.43288 elapsed seconds
Timing for main: time 2012-10-28_13:36:00 on domain   1:    0.65185 elapsed seconds
Timing for main: time 2012-10-28_13:39:00 on domain   1:    0.59806 elapsed seconds
Timing for main: time 2012-10-28_13:42:00 on domain   1:    0.64886 elapsed seconds
Timing for main: time 2012-10-28_13:45:00 on domain   1:    0.66933 elapsed seconds
Timing for main: time 2012-10-28_13:48:00 on domain   1:    0.73417 elapsed seconds
Timing for main: time 2012-10-28_13:51:00 on domain   1:    0.62483 elapsed seconds
Timing for main: time 2012-10-28_13:54:00 on domain   1:    0.59503 elapsed seconds
Timing for main: time 2012-10-28_13:57:00 on domain   1:    0.59774 elapsed seconds
Timing for main: time 2012-10-28_14:00:00 on domain   1:    0.65114 elapsed seconds
Timing for Writing wrfout_d01_2012-10-28_14:00:00 for domain        1:    0.94301 elapsed seconds
Timing for main: time 2012-10-28_14:03:00 on domain   1:    2.40863 elapsed seconds
Timing for main: time 2012-10-28_14:06:00 on domain   1:    0.74160 elapsed seconds
Timing for main: time 2012-10-28_14:09:00 on domain   1:    0.67186 elapsed seconds
Timing for main: time 2012-10-28_14:12:00 on domain   1:    0.65566 elapsed seconds
Timing for main: time 2012-10-28_14:15:00 on domain   1:    0.65256 elapsed seconds
Timing for main: time 2012-10-28_14:18:00 on domain   1:    0.73976 elapsed seconds
Timing for main: time 2012-10-28_14:21:00 on domain   1:    0.67224 elapsed seconds
Timing for main: time 2012-10-28_14:24:00 on domain   1:    0.71436 elapsed seconds
Timing for main: time 2012-10-28_14:27:00 on domain   1:    0.53677 elapsed seconds
Timing for main: time 2012-10-28_14:30:00 on domain   1:    0.70924 elapsed seconds
Timing for Writing wrfout_d01_2012-10-28_14:30:00 for domain        1:    1.11090 elapsed seconds
Timing for main: time 2012-10-28_14:33:00 on domain   1:    2.47328 elapsed seconds
Timing for main: time 2012-10-28_14:36:00 on domain   1:    0.63070 elapsed seconds
Timing for main: time 2012-10-28_14:39:00 on domain   1:    0.56025 elapsed seconds
Timing for main: time 2012-10-28_14:42:00 on domain   1:    0.63453 elapsed seconds
Timing for main: time 2012-10-28_14:45:00 on domain   1:    0.59640 elapsed seconds
Timing for main: time 2012-10-28_14:48:00 on domain   1:    0.74599 elapsed seconds
Timing for main: time 2012-10-28_14:51:00 on domain   1:    0.68460 elapsed seconds
Timing for main: time 2012-10-28_14:54:00 on domain   1:    0.76701 elapsed seconds
Timing for main: time 2012-10-28_14:57:00 on domain   1:    0.67469 elapsed seconds
Timing for main: time 2012-10-28_15:00:00 on domain   1:    0.64307 elapsed seconds
Timing for Writing wrfout_d01_2012-10-28_15:00:00 for domain        1:    0.84912 elapsed seconds
Timing for main: time 2012-10-28_15:03:00 on domain   1:    2.18954 elapsed seconds
Timing for main: time 2012-10-28_15:06:00 on domain   1:    0.74555 elapsed seconds
Timing for main: time 2012-10-28_15:09:00 on domain   1:    0.67553 elapsed seconds
Timing for main: time 2012-10-28_15:12:00 on domain   1:    0.71261 elapsed seconds
Timing for main: time 2012-10-28_15:15:00 on domain   1:    0.58783 elapsed seconds
Timing for main: time 2012-10-28_15:18:00 on domain   1:    0.61940 elapsed seconds
Timing for main: time 2012-10-28_15:21:00 on domain   1:    0.57193 elapsed seconds
Timing for main: time 2012-10-28_15:24:00 on domain   1:    0.64140 elapsed seconds
Timing for main: time 2012-10-28_15:27:00 on domain   1:    0.54576 elapsed seconds
Timing for main: time 2012-10-28_15:30:00 on domain   1:    0.62604 elapsed seconds
Timing for Writing wrfout_d01_2012-10-28_15:30:00 for domain        1:    1.05543 elapsed seconds
Timing for main: time 2012-10-28_15:33:00 on domain   1:    2.55037 elapsed seconds
Timing for main: time 2012-10-28_15:36:00 on domain   1:    0.59775 elapsed seconds
Timing for main: time 2012-10-28_15:39:00 on domain   1:    0.57878 elapsed seconds
Timing for main: time 2012-10-28_15:42:00 on domain   1:    0.76033 elapsed seconds
Timing for main: time 2012-10-28_15:45:00 on domain   1:    0.69250 elapsed seconds
Timing for main: time 2012-10-28_15:48:00 on domain   1:    0.77615 elapsed seconds
Timing for main: time 2012-10-28_15:51:00 on domain   1:    0.68274 elapsed seconds
Timing for main: time 2012-10-28_15:54:00 on domain   1:    0.67865 elapsed seconds
Timing for main: time 2012-10-28_15:57:00 on domain   1:    0.58238 elapsed seconds
Timing for main: time 2012-10-28_16:00:00 on domain   1:    0.62837 elapsed seconds
Timing for Writing wrfout_d01_2012-10-28_16:00:00 for domain        1:    1.08669 elapsed seconds
Timing for main: time 2012-10-28_16:03:00 on domain   1:    2.62919 elapsed seconds
Timing for main: time 2012-10-28_16:06:00 on domain   1:    0.72821 elapsed seconds
Timing for main: time 2012-10-28_16:09:00 on domain   1:    0.59409 elapsed seconds
Timing for main: time 2012-10-28_16:12:00 on domain   1:    0.59690 elapsed seconds
Timing for main: time 2012-10-28_16:15:00 on domain   1:    0.55536 elapsed seconds
Timing for main: time 2012-10-28_16:18:00 on domain   1:    0.64791 elapsed seconds
Timing for main: time 2012-10-28_16:21:00 on domain   1:    0.59068 elapsed seconds
Timing for main: time 2012-10-28_16:24:00 on domain   1:    0.62078 elapsed seconds
Timing for main: time 2012-10-28_16:27:00 on domain   1:    0.66323 elapsed seconds
Timing for main: time 2012-10-28_16:30:00 on domain   1:    0.76550 elapsed seconds
Timing for Writing wrfout_d01_2012-10-28_16:30:00 for domain        1:    1.05550 elapsed seconds
Timing for main: time 2012-10-28_16:33:00 on domain   1:    2.28437 elapsed seconds
Timing for main: time 2012-10-28_16:36:00 on domain   1:    0.74915 elapsed seconds
Timing for main: time 2012-10-28_16:39:00 on domain   1:    0.67861 elapsed seconds
Timing for main: time 2012-10-28_16:42:00 on domain   1:    0.67087 elapsed seconds
Timing for main: time 2012-10-28_16:45:00 on domain   1:    0.54424 elapsed seconds
Timing for main: time 2012-10-28_16:48:00 on domain   1:    0.60258 elapsed seconds
Timing for main: time 2012-10-28_16:51:00 on domain   1:    0.67024 elapsed seconds
Timing for main: time 2012-10-28_16:54:00 on domain   1:    0.76449 elapsed seconds
Timing for main: time 2012-10-28_16:57:00 on domain   1:    0.68103 elapsed seconds
Timing for main: time 2012-10-28_17:00:00 on domain   1:    0.75157 elapsed seconds
Timing for Writing wrfout_d01_2012-10-28_17:00:00 for domain        1:    0.92033 elapsed seconds
Timing for main: time 2012-10-28_17:03:00 on domain   1:    2.12960 elapsed seconds
Timing for main: time 2012-10-28_17:06:00 on domain   1:    0.72983 elapsed seconds
Timing for main: time 2012-10-28_17:09:00 on domain   1:    0.67948 elapsed seconds
Timing for main: time 2012-10-28_17:12:00 on domain   1:    0.74745 elapsed seconds
Timing for main: time 2012-10-28_17:15:00 on domain   1:    0.67951 elapsed seconds
Timing for main: time 2012-10-28_17:18:00 on domain   1:    0.64735 elapsed seconds
Timing for main: time 2012-10-28_17:21:00 on domain   1:    0.55484 elapsed seconds
Timing for main: time 2012-10-28_17:24:00 on domain   1:    0.62762 elapsed seconds
Timing for main: time 2012-10-28_17:27:00 on domain   1:    0.54377 elapsed seconds
Timing for main: time 2012-10-28_17:30:00 on domain   1:    0.70855 elapsed seconds
Timing for Writing wrfout_d01_2012-10-28_17:30:00 for domain        1:    1.10491 elapsed seconds
Timing for main: time 2012-10-28_17:33:00 on domain   1:    2.39111 elapsed seconds
Timing for main: time 2012-10-28_17:36:00 on domain   1:    0.61339 elapsed seconds
Timing for main: time 2012-10-28_17:39:00 on domain   1:    0.55747 elapsed seconds
Timing for main: time 2012-10-28_17:42:00 on domain   1:    0.59856 elapsed seconds
Timing for main: time 2012-10-28_17:45:00 on domain   1:    0.54685 elapsed seconds
Timing for main: time 2012-10-28_17:48:00 on domain   1:    0.75046 elapsed seconds
Timing for main: time 2012-10-28_17:51:00 on domain   1:    0.67820 elapsed seconds
Timing for main: time 2012-10-28_17:54:00 on domain   1:    0.75012 elapsed seconds
Timing for main: time 2012-10-28_17:57:00 on domain   1:    0.68191 elapsed seconds
Timing for main: time 2012-10-28_18:00:00 on domain   1:    0.63217 elapsed seconds
Timing for Writing wrfout_d01_2012-10-28_18:00:00 for domain        1:    0.84443 elapsed seconds
 Input data is acceptable to use: wrflowinp_d01
Input data processed for aux input   4 for domain   1
 Input data is acceptable to use: wrfbdy_d01
Timing for processing lateral boundary for domain        1:    0.02699 elapsed seconds
Timing for main: time 2012-10-28_18:03:00 on domain   1:    2.19926 elapsed seconds
Timing for main: time 2012-10-28_18:06:00 on domain   1:    0.74912 elapsed seconds
Timing for main: time 2012-10-28_18:09:00 on domain   1:    0.67918 elapsed seconds
Timing for main: time 2012-10-28_18:12:00 on domain   1:    0.73718 elapsed seconds
Timing for main: time 2012-10-28_18:15:00 on domain   1:    0.57230 elapsed seconds
Timing for main: time 2012-10-28_18:18:00 on domain   1:    0.73359 elapsed seconds
Timing for main: time 2012-10-28_18:21:00 on domain   1:    0.68053 elapsed seconds
Timing for main: time 2012-10-28_18:24:00 on domain   1:    0.75218 elapsed seconds
Timing for main: time 2012-10-28_18:27:00 on domain   1:    0.59782 elapsed seconds
Timing for main: time 2012-10-28_18:30:00 on domain   1:    0.61038 elapsed seconds
Timing for Writing wrfout_d01_2012-10-28_18:30:00 for domain        1:    1.06929 elapsed seconds
Timing for main: time 2012-10-28_18:33:00 on domain   1:    2.51761 elapsed seconds
Timing for main: time 2012-10-28_18:36:00 on domain   1:    0.60814 elapsed seconds
Timing for main: time 2012-10-28_18:39:00 on domain   1:    0.55343 elapsed seconds
Timing for main: time 2012-10-28_18:42:00 on domain   1:    0.73521 elapsed seconds
Timing for main: time 2012-10-28_18:45:00 on domain   1:    0.68228 elapsed seconds
Timing for main: time 2012-10-28_18:48:00 on domain   1:    0.75217 elapsed seconds
Timing for main: time 2012-10-28_18:51:00 on domain   1:    0.69037 elapsed seconds
Timing for main: time 2012-10-28_18:54:00 on domain   1:    0.69640 elapsed seconds
Timing for main: time 2012-10-28_18:57:00 on domain   1:    0.56918 elapsed seconds
Timing for main: time 2012-10-28_19:00:00 on domain   1:    0.66161 elapsed seconds
Timing for Writing wrfout_d01_2012-10-28_19:00:00 for domain        1:    1.00034 elapsed seconds
Timing for main: time 2012-10-28_19:03:00 on domain   1:    2.52929 elapsed seconds
Timing for main: time 2012-10-28_19:06:00 on domain   1:    0.74906 elapsed seconds
Timing for main: time 2012-10-28_19:09:00 on domain   1:    0.55532 elapsed seconds
Timing for main: time 2012-10-28_19:12:00 on domain   1:    0.75793 elapsed seconds
Timing for main: time 2012-10-28_19:15:00 on domain   1:    0.68805 elapsed seconds
Timing for main: time 2012-10-28_19:18:00 on domain   1:    0.75918 elapsed seconds
Timing for main: time 2012-10-28_19:21:00 on domain   1:    0.58232 elapsed seconds
Timing for main: time 2012-10-28_19:24:00 on domain   1:    0.62573 elapsed seconds
Timing for main: time 2012-10-28_19:27:00 on domain   1:    0.67490 elapsed seconds
Timing for main: time 2012-10-28_19:30:00 on domain   1:    0.75196 elapsed seconds
Timing for Writing wrfout_d01_2012-10-28_19:30:00 for domain        1:    1.01200 elapsed seconds
Timing for main: time 2012-10-28_19:33:00 on domain   1:    2.33548 elapsed seconds
Timing for main: time 2012-10-28_19:36:00 on domain   1:    0.72223 elapsed seconds
Timing for main: time 2012-10-28_19:39:00 on domain   1:    0.56634 elapsed seconds
Timing for main: time 2012-10-28_19:42:00 on domain   1:    0.75171 elapsed seconds
Timing for main: time 2012-10-28_19:45:00 on domain   1:    0.68918 elapsed seconds
Timing for main: time 2012-10-28_19:48:00 on domain   1:    0.77068 elapsed seconds
Timing for main: time 2012-10-28_19:51:00 on domain   1:    0.71715 elapsed seconds
Timing for main: time 2012-10-28_19:54:00 on domain   1:    0.67541 elapsed seconds
Timing for main: time 2012-10-28_19:57:00 on domain   1:    0.55773 elapsed seconds
Timing for main: time 2012-10-28_20:00:00 on domain   1:    0.64835 elapsed seconds
Timing for Writing wrfout_d01_2012-10-28_20:00:00 for domain        1:    1.01694 elapsed seconds
Timing for main: time 2012-10-28_20:03:00 on domain   1:    2.34299 elapsed seconds
Timing for main: time 2012-10-28_20:06:00 on domain   1:    0.75366 elapsed seconds
Timing for main: time 2012-10-28_20:09:00 on domain   1:    0.68350 elapsed seconds
Timing for main: time 2012-10-28_20:12:00 on domain   1:    0.75094 elapsed seconds
Timing for main: time 2012-10-28_20:15:00 on domain   1:    0.54533 elapsed seconds
Timing for main: time 2012-10-28_20:18:00 on domain   1:    0.61810 elapsed seconds
Timing for main: time 2012-10-28_20:21:00 on domain   1:    0.68384 elapsed seconds
Timing for main: time 2012-10-28_20:24:00 on domain   1:    0.75207 elapsed seconds
Timing for main: time 2012-10-28_20:27:00 on domain   1:    0.67142 elapsed seconds
Timing for main: time 2012-10-28_20:30:00 on domain   1:    0.59658 elapsed seconds
Timing for Writing wrfout_d01_2012-10-28_20:30:00 for domain        1:    0.87492 elapsed seconds
Timing for main: time 2012-10-28_20:33:00 on domain   1:    2.08149 elapsed seconds
Timing for main: time 2012-10-28_20:36:00 on domain   1:    0.70742 elapsed seconds
Timing for main: time 2012-10-28_20:39:00 on domain   1:    0.68305 elapsed seconds
Timing for main: time 2012-10-28_20:42:00 on domain   1:    0.76229 elapsed seconds
Timing for main: time 2012-10-28_20:45:00 on domain   1:    0.68431 elapsed seconds
Timing for main: time 2012-10-28_20:48:00 on domain   1:    0.70044 elapsed seconds
Timing for main: time 2012-10-28_20:51:00 on domain   1:    0.65674 elapsed seconds
Timing for main: time 2012-10-28_20:54:00 on domain   1:    0.75334 elapsed seconds
Timing for main: time 2012-10-28_20:57:00 on domain   1:    0.68407 elapsed seconds
Timing for main: time 2012-10-28_21:00:00 on domain   1:    0.76429 elapsed seconds
Timing for Writing wrfout_d01_2012-10-28_21:00:00 for domain        1:    0.87750 elapsed seconds
Timing for main: time 2012-10-28_21:03:00 on domain   1:    2.07423 elapsed seconds
Timing for main: time 2012-10-28_21:06:00 on domain   1:    0.70924 elapsed seconds
Timing for main: time 2012-10-28_21:09:00 on domain   1:    0.68805 elapsed seconds
Timing for main: time 2012-10-28_21:12:00 on domain   1:    0.75665 elapsed seconds
Timing for main: time 2012-10-28_21:15:00 on domain   1:    0.63444 elapsed seconds
Timing for main: time 2012-10-28_21:18:00 on domain   1:    0.61466 elapsed seconds
Timing for main: time 2012-10-28_21:21:00 on domain   1:    0.63153 elapsed seconds
Timing for main: time 2012-10-28_21:24:00 on domain   1:    0.75718 elapsed seconds
Timing for main: time 2012-10-28_21:27:00 on domain   1:    0.69150 elapsed seconds
Timing for main: time 2012-10-28_21:30:00 on domain   1:    0.68313 elapsed seconds
Timing for Writing wrfout_d01_2012-10-28_21:30:00 for domain        1:    0.88701 elapsed seconds
Timing for main: time 2012-10-28_21:33:00 on domain   1:    2.36706 elapsed seconds
Timing for main: time 2012-10-28_21:36:00 on domain   1:    0.75732 elapsed seconds
Timing for main: time 2012-10-28_21:39:00 on domain   1:    0.68739 elapsed seconds
Timing for main: time 2012-10-28_21:42:00 on domain   1:    0.66650 elapsed seconds
Timing for main: time 2012-10-28_21:45:00 on domain   1:    0.54273 elapsed seconds
Timing for main: time 2012-10-28_21:48:00 on domain   1:    0.59720 elapsed seconds
Timing for main: time 2012-10-28_21:51:00 on domain   1:    0.54646 elapsed seconds
Timing for main: time 2012-10-28_21:54:00 on domain   1:    0.59959 elapsed seconds
Timing for main: time 2012-10-28_21:57:00 on domain   1:    0.54685 elapsed seconds
Timing for main: time 2012-10-28_22:00:00 on domain   1:    0.66509 elapsed seconds
Timing for Writing wrfout_d01_2012-10-28_22:00:00 for domain        1:    1.11325 elapsed seconds
Timing for main: time 2012-10-28_22:03:00 on domain   1:    2.57211 elapsed seconds
Timing for main: time 2012-10-28_22:06:00 on domain   1:    0.60017 elapsed seconds
Timing for main: time 2012-10-28_22:09:00 on domain   1:    0.68793 elapsed seconds
Timing for main: time 2012-10-28_22:12:00 on domain   1:    0.75976 elapsed seconds
Timing for main: time 2012-10-28_22:15:00 on domain   1:    0.69074 elapsed seconds
Timing for main: time 2012-10-28_22:18:00 on domain   1:    0.62948 elapsed seconds
Timing for main: time 2012-10-28_22:21:00 on domain   1:    0.54882 elapsed seconds
Timing for main: time 2012-10-28_22:24:00 on domain   1:    0.75067 elapsed seconds
Timing for main: time 2012-10-28_22:27:00 on domain   1:    0.69107 elapsed seconds
Timing for main: time 2012-10-28_22:30:00 on domain   1:    0.71444 elapsed seconds
Timing for Writing wrfout_d01_2012-10-28_22:30:00 for domain        1:    0.84889 elapsed seconds
Timing for main: time 2012-10-28_22:33:00 on domain   1:    2.20976 elapsed seconds
Timing for main: time 2012-10-28_22:36:00 on domain   1:    0.76410 elapsed seconds
Timing for main: time 2012-10-28_22:39:00 on domain   1:    0.70241 elapsed seconds
Timing for main: time 2012-10-28_22:42:00 on domain   1:    0.75948 elapsed seconds
Timing for main: time 2012-10-28_22:45:00 on domain   1:    0.56249 elapsed seconds
Timing for main: time 2012-10-28_22:48:00 on domain   1:    0.65724 elapsed seconds
Timing for main: time 2012-10-28_22:51:00 on domain   1:    0.66763 elapsed seconds
Timing for main: time 2012-10-28_22:54:00 on domain   1:    0.67098 elapsed seconds
Timing for main: time 2012-10-28_22:57:00 on domain   1:    0.61813 elapsed seconds
Timing for main: time 2012-10-28_23:00:00 on domain   1:    0.66913 elapsed seconds
Timing for Writing wrfout_d01_2012-10-28_23:00:00 for domain        1:    1.10979 elapsed seconds
Timing for main: time 2012-10-28_23:03:00 on domain   1:    2.56003 elapsed seconds
Timing for main: time 2012-10-28_23:06:00 on domain   1:    0.68759 elapsed seconds
Timing for main: time 2012-10-28_23:09:00 on domain   1:    0.70356 elapsed seconds
Timing for main: time 2012-10-28_23:12:00 on domain   1:    0.76691 elapsed seconds
Timing for main: time 2012-10-28_23:15:00 on domain   1:    0.70648 elapsed seconds
Timing for main: time 2012-10-28_23:18:00 on domain   1:    0.69334 elapsed seconds
Timing for main: time 2012-10-28_23:21:00 on domain   1:    0.63464 elapsed seconds
Timing for main: time 2012-10-28_23:24:00 on domain   1:    0.77166 elapsed seconds
Timing for main: time 2012-10-28_23:27:00 on domain   1:    0.76577 elapsed seconds
Timing for main: time 2012-10-28_23:30:00 on domain   1:    0.75885 elapsed seconds
Timing for Writing wrfout_d01_2012-10-28_23:30:00 for domain        1:    0.99668 elapsed seconds
Timing for main: time 2012-10-28_23:33:00 on domain   1:    2.36628 elapsed seconds
Timing for main: time 2012-10-28_23:36:00 on domain   1:    0.72034 elapsed seconds
Timing for main: time 2012-10-28_23:39:00 on domain   1:    0.76802 elapsed seconds
Timing for main: time 2012-10-28_23:42:00 on domain   1:    0.78737 elapsed seconds
Timing for main: time 2012-10-28_23:45:00 on domain   1:    0.71135 elapsed seconds
Timing for main: time 2012-10-28_23:48:00 on domain   1:    0.74493 elapsed seconds
Timing for main: time 2012-10-28_23:51:00 on domain   1:    0.55716 elapsed seconds
Timing for main: time 2012-10-28_23:54:00 on domain   1:    0.61136 elapsed seconds
Timing for main: time 2012-10-28_23:57:00 on domain   1:    0.55219 elapsed seconds
Timing for main: time 2012-10-29_00:00:00 on domain   1:    0.74534 elapsed seconds
Timing for Writing wrfout_d01_2012-10-29_00:00:00 for domain        1:    1.10999 elapsed seconds
 Input data is acceptable to use: wrflowinp_d01
Input data processed for aux input   4 for domain   1
 Input data is acceptable to use: wrfbdy_d01
Timing for processing lateral boundary for domain        1:    0.03344 elapsed seconds
Timing for main: time 2012-10-29_00:03:00 on domain   1:    2.45880 elapsed seconds
Timing for main: time 2012-10-29_00:06:00 on domain   1:    0.64831 elapsed seconds
Timing for main: time 2012-10-29_00:09:00 on domain   1:    0.55408 elapsed seconds
Timing for main: time 2012-10-29_00:12:00 on domain   1:    0.60468 elapsed seconds
Timing for main: time 2012-10-29_00:15:00 on domain   1:    0.64000 elapsed seconds
Timing for main: time 2012-10-29_00:18:00 on domain   1:    0.75984 elapsed seconds
Timing for main: time 2012-10-29_00:21:00 on domain   1:    0.68900 elapsed seconds
Timing for main: time 2012-10-29_00:24:00 on domain   1:    0.62976 elapsed seconds
Timing for main: time 2012-10-29_00:27:00 on domain   1:    0.55350 elapsed seconds
Timing for main: time 2012-10-29_00:30:00 on domain   1:    0.60629 elapsed seconds
Timing for Writing wrfout_d01_2012-10-29_00:30:00 for domain        1:    0.87736 elapsed seconds
Timing for main: time 2012-10-29_00:33:00 on domain   1:    2.25474 elapsed seconds
Timing for main: time 2012-10-29_00:36:00 on domain   1:    0.76127 elapsed seconds
Timing for main: time 2012-10-29_00:39:00 on domain   1:    0.69210 elapsed seconds
Timing for main: time 2012-10-29_00:42:00 on domain   1:    0.74702 elapsed seconds
Timing for main: time 2012-10-29_00:45:00 on domain   1:    0.56528 elapsed seconds
Timing for main: time 2012-10-29_00:48:00 on domain   1:    0.63596 elapsed seconds
Timing for main: time 2012-10-29_00:51:00 on domain   1:    0.55239 elapsed seconds
Timing for main: time 2012-10-29_00:54:00 on domain   1:    0.68159 elapsed seconds
Timing for main: time 2012-10-29_00:57:00 on domain   1:    0.69288 elapsed seconds
Timing for main: time 2012-10-29_01:00:00 on domain   1:    0.76125 elapsed seconds
Timing for Writing wrfout_d01_2012-10-29_01:00:00 for domain        1:    1.02606 elapsed seconds
Timing for main: time 2012-10-29_01:03:00 on domain   1:    2.34507 elapsed seconds
Timing for main: time 2012-10-29_01:06:00 on domain   1:    0.76489 elapsed seconds
Timing for main: time 2012-10-29_01:09:00 on domain   1:    0.69347 elapsed seconds
Timing for main: time 2012-10-29_01:12:00 on domain   1:    0.59963 elapsed seconds
Timing for main: time 2012-10-29_01:15:00 on domain   1:    0.57328 elapsed seconds
Timing for main: time 2012-10-29_01:18:00 on domain   1:    0.76046 elapsed seconds
Timing for main: time 2012-10-29_01:21:00 on domain   1:    0.69364 elapsed seconds
Timing for main: time 2012-10-29_01:24:00 on domain   1:    0.75371 elapsed seconds
Timing for main: time 2012-10-29_01:27:00 on domain   1:    0.63915 elapsed seconds
Timing for main: time 2012-10-29_01:30:00 on domain   1:    0.67974 elapsed seconds
Timing for Writing wrfout_d01_2012-10-29_01:30:00 for domain        1:    1.15640 elapsed seconds
Timing for main: time 2012-10-29_01:33:00 on domain   1:    2.65856 elapsed seconds
Timing for main: time 2012-10-29_01:36:00 on domain   1:    0.68641 elapsed seconds
Timing for main: time 2012-10-29_01:39:00 on domain   1:    0.55321 elapsed seconds
Timing for main: time 2012-10-29_01:42:00 on domain   1:    0.60461 elapsed seconds
Timing for main: time 2012-10-29_01:45:00 on domain   1:    0.55156 elapsed seconds
Timing for main: time 2012-10-29_01:48:00 on domain   1:    0.76350 elapsed seconds
Timing for main: time 2012-10-29_01:51:00 on domain   1:    0.70036 elapsed seconds
Timing for main: time 2012-10-29_01:54:00 on domain   1:    0.76411 elapsed seconds
Timing for main: time 2012-10-29_01:57:00 on domain   1:    0.61791 elapsed seconds
Timing for main: time 2012-10-29_02:00:00 on domain   1:    0.60768 elapsed seconds
Timing for Writing wrfout_d01_2012-10-29_02:00:00 for domain        1:    1.08693 elapsed seconds
Timing for main: time 2012-10-29_02:03:00 on domain   1:    2.53347 elapsed seconds
Timing for main: time 2012-10-29_02:06:00 on domain   1:    0.60367 elapsed seconds
Timing for main: time 2012-10-29_02:09:00 on domain   1:    0.54939 elapsed seconds
Timing for main: time 2012-10-29_02:12:00 on domain   1:    0.60424 elapsed seconds
Timing for main: time 2012-10-29_02:15:00 on domain   1:    0.60492 elapsed seconds
Timing for main: time 2012-10-29_02:18:00 on domain   1:    0.68933 elapsed seconds
Timing for main: time 2012-10-29_02:21:00 on domain   1:    0.69857 elapsed seconds
Timing for main: time 2012-10-29_02:24:00 on domain   1:    0.76579 elapsed seconds
Timing for main: time 2012-10-29_02:27:00 on domain   1:    0.69634 elapsed seconds
Timing for main: time 2012-10-29_02:30:00 on domain   1:    0.75828 elapsed seconds
Timing for Writing wrfout_d01_2012-10-29_02:30:00 for domain        1:    0.88707 elapsed seconds
Timing for main: time 2012-10-29_02:33:00 on domain   1:    2.07555 elapsed seconds
Timing for main: time 2012-10-29_02:36:00 on domain   1:    0.61406 elapsed seconds
Timing for main: time 2012-10-29_02:39:00 on domain   1:    0.56247 elapsed seconds
Timing for main: time 2012-10-29_02:42:00 on domain   1:    0.69561 elapsed seconds
Timing for main: time 2012-10-29_02:45:00 on domain   1:    0.70240 elapsed seconds
Timing for main: time 2012-10-29_02:48:00 on domain   1:    0.78796 elapsed seconds
Timing for main: time 2012-10-29_02:51:00 on domain   1:    0.69427 elapsed seconds
Timing for main: time 2012-10-29_02:54:00 on domain   1:    0.63722 elapsed seconds
Timing for main: time 2012-10-29_02:57:00 on domain   1:    0.55499 elapsed seconds
Timing for main: time 2012-10-29_03:00:00 on domain   1:    0.61715 elapsed seconds
Timing for Writing wrfout_d01_2012-10-29_03:00:00 for domain        1:    0.90219 elapsed seconds
Timing for main: time 2012-10-29_03:03:00 on domain   1:    2.41827 elapsed seconds
Timing for main: time 2012-10-29_03:06:00 on domain   1:    0.73783 elapsed seconds
Timing for main: time 2012-10-29_03:09:00 on domain   1:    0.61038 elapsed seconds
Timing for main: time 2012-10-29_03:12:00 on domain   1:    0.66841 elapsed seconds
Timing for main: time 2012-10-29_03:15:00 on domain   1:    0.69627 elapsed seconds
Timing for main: time 2012-10-29_03:18:00 on domain   1:    0.76893 elapsed seconds
Timing for main: time 2012-10-29_03:21:00 on domain   1:    0.62472 elapsed seconds
Timing for main: time 2012-10-29_03:24:00 on domain   1:    0.65567 elapsed seconds
Timing for main: time 2012-10-29_03:27:00 on domain   1:    0.58790 elapsed seconds
Timing for main: time 2012-10-29_03:30:00 on domain   1:    0.76750 elapsed seconds
Timing for Writing wrfout_d01_2012-10-29_03:30:00 for domain        1:    1.13286 elapsed seconds
Timing for main: time 2012-10-29_03:33:00 on domain   1:    2.65619 elapsed seconds
Timing for main: time 2012-10-29_03:36:00 on domain   1:    0.65934 elapsed seconds
Timing for main: time 2012-10-29_03:39:00 on domain   1:    0.55292 elapsed seconds
Timing for main: time 2012-10-29_03:42:00 on domain   1:    0.66454 elapsed seconds
Timing for main: time 2012-10-29_03:45:00 on domain   1:    0.69791 elapsed seconds
Timing for main: time 2012-10-29_03:48:00 on domain   1:    0.76718 elapsed seconds
Timing for main: time 2012-10-29_03:51:00 on domain   1:    0.69890 elapsed seconds
Timing for main: time 2012-10-29_03:54:00 on domain   1:    0.66938 elapsed seconds
Timing for main: time 2012-10-29_03:57:00 on domain   1:    0.58055 elapsed seconds
Timing for main: time 2012-10-29_04:00:00 on domain   1:    0.65003 elapsed seconds
Timing for Writing wrfout_d01_2012-10-29_04:00:00 for domain        1:    0.86743 elapsed seconds
Timing for main: time 2012-10-29_04:03:00 on domain   1:    2.08565 elapsed seconds
Timing for main: time 2012-10-29_04:06:00 on domain   1:    0.66012 elapsed seconds
Timing for main: time 2012-10-29_04:09:00 on domain   1:    0.69823 elapsed seconds
Timing for main: time 2012-10-29_04:12:00 on domain   1:    0.76470 elapsed seconds
Timing for main: time 2012-10-29_04:15:00 on domain   1:    0.61431 elapsed seconds
Timing for main: time 2012-10-29_04:18:00 on domain   1:    0.65654 elapsed seconds
Timing for main: time 2012-10-29_04:21:00 on domain   1:    0.62843 elapsed seconds
Timing for main: time 2012-10-29_04:24:00 on domain   1:    0.79569 elapsed seconds
Timing for main: time 2012-10-29_04:27:00 on domain   1:    0.70801 elapsed seconds
Timing for main: time 2012-10-29_04:30:00 on domain   1:    0.77981 elapsed seconds
Timing for Writing wrfout_d01_2012-10-29_04:30:00 for domain        1:    1.04522 elapsed seconds
Timing for main: time 2012-10-29_04:33:00 on domain   1:    2.25276 elapsed seconds
Timing for main: time 2012-10-29_04:36:00 on domain   1:    0.64183 elapsed seconds
Timing for main: time 2012-10-29_04:39:00 on domain   1:    0.69597 elapsed seconds
Timing for main: time 2012-10-29_04:42:00 on domain   1:    0.76589 elapsed seconds
Timing for main: time 2012-10-29_04:45:00 on domain   1:    0.69651 elapsed seconds
Timing for main: time 2012-10-29_04:48:00 on domain   1:    0.66801 elapsed seconds
Timing for main: time 2012-10-29_04:51:00 on domain   1:    0.59133 elapsed seconds
Timing for main: time 2012-10-29_04:54:00 on domain   1:    0.76638 elapsed seconds
Timing for main: time 2012-10-29_04:57:00 on domain   1:    0.70110 elapsed seconds
Timing for main: time 2012-10-29_05:00:00 on domain   1:    0.76691 elapsed seconds
Timing for Writing wrfout_d01_2012-10-29_05:00:00 for domain        1:    0.85040 elapsed seconds
Timing for main: time 2012-10-29_05:03:00 on domain   1:    2.28424 elapsed seconds
Timing for main: time 2012-10-29_05:06:00 on domain   1:    0.76949 elapsed seconds
Timing for main: time 2012-10-29_05:09:00 on domain   1:    0.57137 elapsed seconds
Timing for main: time 2012-10-29_05:12:00 on domain   1:    0.60979 elapsed seconds
Timing for main: time 2012-10-29_05:15:00 on domain   1:    0.56677 elapsed seconds
Timing for main: time 2012-10-29_05:18:00 on domain   1:    0.62118 elapsed seconds
Timing for main: time 2012-10-29_05:21:00 on domain   1:    0.56230 elapsed seconds
Timing for main: time 2012-10-29_05:24:00 on domain   1:    0.61993 elapsed seconds
Timing for main: time 2012-10-29_05:27:00 on domain   1:    0.57386 elapsed seconds
Timing for main: time 2012-10-29_05:30:00 on domain   1:    0.60789 elapsed seconds
Timing for Writing wrfout_d01_2012-10-29_05:30:00 for domain        1:    1.01485 elapsed seconds
Timing for main: time 2012-10-29_05:33:00 on domain   1:    2.51919 elapsed seconds
Timing for main: time 2012-10-29_05:36:00 on domain   1:    0.77287 elapsed seconds
Timing for main: time 2012-10-29_05:39:00 on domain   1:    0.63641 elapsed seconds
Timing for main: time 2012-10-29_05:42:00 on domain   1:    0.71616 elapsed seconds
Timing for main: time 2012-10-29_05:45:00 on domain   1:    0.68705 elapsed seconds
Timing for main: time 2012-10-29_05:48:00 on domain   1:    0.80170 elapsed seconds
Timing for main: time 2012-10-29_05:51:00 on domain   1:    0.72227 elapsed seconds
Timing for main: time 2012-10-29_05:54:00 on domain   1:    0.80649 elapsed seconds
Timing for main: time 2012-10-29_05:57:00 on domain   1:    0.61390 elapsed seconds
Timing for main: time 2012-10-29_06:00:00 on domain   1:    0.69049 elapsed seconds
Timing for Writing wrfout_d01_2012-10-29_06:00:00 for domain        1:    1.12644 elapsed seconds
 Input data is acceptable to use: wrflowinp_d01
Input data processed for aux input   4 for domain   1
 Input data is acceptable to use: wrfbdy_d01
Timing for processing lateral boundary for domain        1:    0.03346 elapsed seconds
Timing for main: time 2012-10-29_06:03:00 on domain   1:    2.55189 elapsed seconds
Timing for main: time 2012-10-29_06:06:00 on domain   1:    0.67147 elapsed seconds
Timing for main: time 2012-10-29_06:09:00 on domain   1:    0.71208 elapsed seconds
Timing for main: time 2012-10-29_06:12:00 on domain   1:    0.80090 elapsed seconds
Timing for main: time 2012-10-29_06:15:00 on domain   1:    0.71083 elapsed seconds
Timing for main: time 2012-10-29_06:18:00 on domain   1:    0.80752 elapsed seconds
Timing for main: time 2012-10-29_06:21:00 on domain   1:    0.65219 elapsed seconds
Timing for main: time 2012-10-29_06:24:00 on domain   1:    0.68758 elapsed seconds
Timing for main: time 2012-10-29_06:27:00 on domain   1:    0.63707 elapsed seconds
Timing for main: time 2012-10-29_06:30:00 on domain   1:    0.74762 elapsed seconds
Timing for Writing wrfout_d01_2012-10-29_06:30:00 for domain        1:    1.10645 elapsed seconds
Timing for main: time 2012-10-29_06:33:00 on domain   1:    2.57459 elapsed seconds
Timing for main: time 2012-10-29_06:36:00 on domain   1:    0.69503 elapsed seconds
Timing for main: time 2012-10-29_06:39:00 on domain   1:    0.61879 elapsed seconds
Timing for main: time 2012-10-29_06:42:00 on domain   1:    0.64019 elapsed seconds
Timing for main: time 2012-10-29_06:45:00 on domain   1:    0.71457 elapsed seconds
Timing for main: time 2012-10-29_06:48:00 on domain   1:    0.78264 elapsed seconds
Timing for main: time 2012-10-29_06:51:00 on domain   1:    0.73172 elapsed seconds
Timing for main: time 2012-10-29_06:54:00 on domain   1:    0.64071 elapsed seconds
Timing for main: time 2012-10-29_06:57:00 on domain   1:    0.58333 elapsed seconds
Timing for main: time 2012-10-29_07:00:00 on domain   1:    0.76375 elapsed seconds
Timing for Writing wrfout_d01_2012-10-29_07:00:00 for domain        1:    1.09743 elapsed seconds
Timing for main: time 2012-10-29_07:03:00 on domain   1:    2.31178 elapsed seconds
Timing for main: time 2012-10-29_07:06:00 on domain   1:    0.64762 elapsed seconds
Timing for main: time 2012-10-29_07:09:00 on domain   1:    0.69998 elapsed seconds
Timing for main: time 2012-10-29_07:12:00 on domain   1:    0.77059 elapsed seconds
Timing for main: time 2012-10-29_07:15:00 on domain   1:    0.69840 elapsed seconds
Timing for main: time 2012-10-29_07:18:00 on domain   1:    0.77223 elapsed seconds
Timing for main: time 2012-10-29_07:21:00 on domain   1:    0.59102 elapsed seconds
Timing for main: time 2012-10-29_07:24:00 on domain   1:    0.60698 elapsed seconds
Timing for main: time 2012-10-29_07:27:00 on domain   1:    0.55490 elapsed seconds
Timing for main: time 2012-10-29_07:30:00 on domain   1:    0.71219 elapsed seconds
Timing for Writing wrfout_d01_2012-10-29_07:30:00 for domain        1:    1.10631 elapsed seconds
Timing for main: time 2012-10-29_07:33:00 on domain   1:    2.54201 elapsed seconds
Timing for main: time 2012-10-29_07:36:00 on domain   1:    0.63261 elapsed seconds
Timing for main: time 2012-10-29_07:39:00 on domain   1:    0.54924 elapsed seconds
Timing for main: time 2012-10-29_07:42:00 on domain   1:    0.60466 elapsed seconds
Timing for main: time 2012-10-29_07:45:00 on domain   1:    0.58970 elapsed seconds
Timing for main: time 2012-10-29_07:48:00 on domain   1:    0.76407 elapsed seconds
Timing for main: time 2012-10-29_07:51:00 on domain   1:    0.69598 elapsed seconds
Timing for main: time 2012-10-29_07:54:00 on domain   1:    0.73038 elapsed seconds
Timing for main: time 2012-10-29_07:57:00 on domain   1:    0.54821 elapsed seconds
Timing for main: time 2012-10-29_08:00:00 on domain   1:    0.61698 elapsed seconds
Timing for Writing wrfout_d01_2012-10-29_08:00:00 for domain        1:    1.09855 elapsed seconds
Timing for main: time 2012-10-29_08:03:00 on domain   1:    2.41984 elapsed seconds
Timing for main: time 2012-10-29_08:06:00 on domain   1:    0.68961 elapsed seconds
Timing for main: time 2012-10-29_08:09:00 on domain   1:    0.56340 elapsed seconds
Timing for main: time 2012-10-29_08:12:00 on domain   1:    0.66245 elapsed seconds
Timing for main: time 2012-10-29_08:15:00 on domain   1:    0.56561 elapsed seconds
Timing for main: time 2012-10-29_08:18:00 on domain   1:    0.75429 elapsed seconds
Timing for main: time 2012-10-29_08:21:00 on domain   1:    0.73656 elapsed seconds
Timing for main: time 2012-10-29_08:24:00 on domain   1:    0.76832 elapsed seconds
Timing for main: time 2012-10-29_08:27:00 on domain   1:    0.72958 elapsed seconds
Timing for main: time 2012-10-29_08:30:00 on domain   1:    0.69050 elapsed seconds
Timing for Writing wrfout_d01_2012-10-29_08:30:00 for domain        1:    0.83507 elapsed seconds
Timing for main: time 2012-10-29_08:33:00 on domain   1:    2.15610 elapsed seconds
Timing for main: time 2012-10-29_08:36:00 on domain   1:    0.76900 elapsed seconds
Timing for main: time 2012-10-29_08:39:00 on domain   1:    0.70165 elapsed seconds
Timing for main: time 2012-10-29_08:42:00 on domain   1:    0.67218 elapsed seconds
Timing for main: time 2012-10-29_08:45:00 on domain   1:    0.55150 elapsed seconds
Timing for main: time 2012-10-29_08:48:00 on domain   1:    0.72470 elapsed seconds
Timing for main: time 2012-10-29_08:51:00 on domain   1:    0.69764 elapsed seconds
Timing for main: time 2012-10-29_08:54:00 on domain   1:    0.75327 elapsed seconds
Timing for main: time 2012-10-29_08:57:00 on domain   1:    0.55250 elapsed seconds
Timing for main: time 2012-10-29_09:00:00 on domain   1:    0.60817 elapsed seconds
Timing for Writing wrfout_d01_2012-10-29_09:00:00 for domain        1:    1.05294 elapsed seconds
Timing for main: time 2012-10-29_09:03:00 on domain   1:    2.55641 elapsed seconds
Timing for main: time 2012-10-29_09:06:00 on domain   1:    0.76741 elapsed seconds
Timing for main: time 2012-10-29_09:09:00 on domain   1:    0.58180 elapsed seconds
Timing for main: time 2012-10-29_09:12:00 on domain   1:    0.62960 elapsed seconds
Timing for main: time 2012-10-29_09:15:00 on domain   1:    0.54648 elapsed seconds
Timing for main: time 2012-10-29_09:18:00 on domain   1:    0.70209 elapsed seconds
Timing for main: time 2012-10-29_09:21:00 on domain   1:    0.69777 elapsed seconds
Timing for main: time 2012-10-29_09:24:00 on domain   1:    0.76710 elapsed seconds
Timing for main: time 2012-10-29_09:27:00 on domain   1:    0.69663 elapsed seconds
Timing for main: time 2012-10-29_09:30:00 on domain   1:    0.63432 elapsed seconds
Timing for Writing wrfout_d01_2012-10-29_09:30:00 for domain        1:    1.07354 elapsed seconds
Timing for main: time 2012-10-29_09:33:00 on domain   1:    2.57503 elapsed seconds
Timing for main: time 2012-10-29_09:36:00 on domain   1:    0.63576 elapsed seconds
Timing for main: time 2012-10-29_09:39:00 on domain   1:    0.55054 elapsed seconds
Timing for main: time 2012-10-29_09:42:00 on domain   1:    0.61211 elapsed seconds
Timing for main: time 2012-10-29_09:45:00 on domain   1:    0.57368 elapsed seconds
Timing for main: time 2012-10-29_09:48:00 on domain   1:    0.62140 elapsed seconds
Timing for main: time 2012-10-29_09:51:00 on domain   1:    0.56808 elapsed seconds
Timing for main: time 2012-10-29_09:54:00 on domain   1:    0.65079 elapsed seconds
Timing for main: time 2012-10-29_09:57:00 on domain   1:    0.56407 elapsed seconds
Timing for main: time 2012-10-29_10:00:00 on domain   1:    0.63115 elapsed seconds
Timing for Writing wrfout_d01_2012-10-29_10:00:00 for domain        1:    1.00490 elapsed seconds
Timing for main: time 2012-10-29_10:03:00 on domain   1:    2.57507 elapsed seconds
Timing for main: time 2012-10-29_10:06:00 on domain   1:    0.78777 elapsed seconds
Timing for main: time 2012-10-29_10:09:00 on domain   1:    0.71642 elapsed seconds
Timing for main: time 2012-10-29_10:12:00 on domain   1:    0.75830 elapsed seconds
Timing for main: time 2012-10-29_10:15:00 on domain   1:    0.63618 elapsed seconds
Timing for main: time 2012-10-29_10:18:00 on domain   1:    0.71658 elapsed seconds
Timing for main: time 2012-10-29_10:21:00 on domain   1:    0.63124 elapsed seconds
Timing for main: time 2012-10-29_10:24:00 on domain   1:    0.69793 elapsed seconds
Timing for main: time 2012-10-29_10:27:00 on domain   1:    0.73208 elapsed seconds
Timing for main: time 2012-10-29_10:30:00 on domain   1:    0.84099 elapsed seconds
Timing for Writing wrfout_d01_2012-10-29_10:30:00 for domain        1:    1.14407 elapsed seconds
Timing for main: time 2012-10-29_10:33:00 on domain   1:    2.43909 elapsed seconds
Timing for main: time 2012-10-29_10:36:00 on domain   1:    0.77428 elapsed seconds
Timing for main: time 2012-10-29_10:39:00 on domain   1:    0.70145 elapsed seconds
Timing for main: time 2012-10-29_10:42:00 on domain   1:    0.72549 elapsed seconds
Timing for main: time 2012-10-29_10:45:00 on domain   1:    0.62257 elapsed seconds
Timing for main: time 2012-10-29_10:48:00 on domain   1:    0.64773 elapsed seconds
Timing for main: time 2012-10-29_10:51:00 on domain   1:    0.55545 elapsed seconds
Timing for main: time 2012-10-29_10:54:00 on domain   1:    0.61253 elapsed seconds
Timing for main: time 2012-10-29_10:57:00 on domain   1:    0.70224 elapsed seconds
Timing for main: time 2012-10-29_11:00:00 on domain   1:    0.77853 elapsed seconds
Timing for Writing wrfout_d01_2012-10-29_11:00:00 for domain        1:    1.09524 elapsed seconds
Timing for main: time 2012-10-29_11:03:00 on domain   1:    2.54519 elapsed seconds
Timing for main: time 2012-10-29_11:06:00 on domain   1:    0.70449 elapsed seconds
Timing for main: time 2012-10-29_11:09:00 on domain   1:    0.57041 elapsed seconds
Timing for main: time 2012-10-29_11:12:00 on domain   1:    0.72462 elapsed seconds
Timing for main: time 2012-10-29_11:15:00 on domain   1:    0.61885 elapsed seconds
Timing for main: time 2012-10-29_11:18:00 on domain   1:    0.76595 elapsed seconds
Timing for main: time 2012-10-29_11:21:00 on domain   1:    0.70431 elapsed seconds
Timing for main: time 2012-10-29_11:24:00 on domain   1:    0.78330 elapsed seconds
Timing for main: time 2012-10-29_11:27:00 on domain   1:    0.68250 elapsed seconds
Timing for main: time 2012-10-29_11:30:00 on domain   1:    0.67163 elapsed seconds
Timing for Writing wrfout_d01_2012-10-29_11:30:00 for domain        1:    0.98261 elapsed seconds
Timing for main: time 2012-10-29_11:33:00 on domain   1:    2.38917 elapsed seconds
Timing for main: time 2012-10-29_11:36:00 on domain   1:    0.81475 elapsed seconds
Timing for main: time 2012-10-29_11:39:00 on domain   1:    0.71076 elapsed seconds
Timing for main: time 2012-10-29_11:42:00 on domain   1:    0.70411 elapsed seconds
Timing for main: time 2012-10-29_11:45:00 on domain   1:    0.69400 elapsed seconds
Timing for main: time 2012-10-29_11:48:00 on domain   1:    0.68014 elapsed seconds
Timing for main: time 2012-10-29_11:51:00 on domain   1:    0.59338 elapsed seconds
Timing for main: time 2012-10-29_11:54:00 on domain   1:    0.63948 elapsed seconds
Timing for main: time 2012-10-29_11:57:00 on domain   1:    0.58261 elapsed seconds
Timing for main: time 2012-10-29_12:00:00 on domain   1:    0.65226 elapsed seconds
Timing for Writing wrfout_d01_2012-10-29_12:00:00 for domain        1:    1.09150 elapsed seconds
 Input data is acceptable to use: wrflowinp_d01
Input data processed for aux input   4 for domain   1
 Input data is acceptable to use: wrfbdy_d01
Timing for processing lateral boundary for domain        1:    0.03384 elapsed seconds
Timing for main: time 2012-10-29_12:03:00 on domain   1:    2.66289 elapsed seconds
Timing for main: time 2012-10-29_12:06:00 on domain   1:    0.73843 elapsed seconds
Timing for main: time 2012-10-29_12:09:00 on domain   1:    0.56708 elapsed seconds
Timing for main: time 2012-10-29_12:12:00 on domain   1:    0.65768 elapsed seconds
Timing for main: time 2012-10-29_12:15:00 on domain   1:    0.56863 elapsed seconds
Timing for main: time 2012-10-29_12:18:00 on domain   1:    0.78245 elapsed seconds
Timing for main: time 2012-10-29_12:21:00 on domain   1:    0.70508 elapsed seconds
Timing for main: time 2012-10-29_12:24:00 on domain   1:    0.78605 elapsed seconds
Timing for main: time 2012-10-29_12:27:00 on domain   1:    0.61425 elapsed seconds
Timing for main: time 2012-10-29_12:30:00 on domain   1:    0.62727 elapsed seconds
Timing for Writing wrfout_d01_2012-10-29_12:30:00 for domain        1:    1.09734 elapsed seconds
Timing for main: time 2012-10-29_12:33:00 on domain   1:    2.51970 elapsed seconds
Timing for main: time 2012-10-29_12:36:00 on domain   1:    0.63336 elapsed seconds
Timing for main: time 2012-10-29_12:39:00 on domain   1:    0.57365 elapsed seconds
Timing for main: time 2012-10-29_12:42:00 on domain   1:    0.63266 elapsed seconds
Timing for main: time 2012-10-29_12:45:00 on domain   1:    0.56958 elapsed seconds
Timing for main: time 2012-10-29_12:48:00 on domain   1:    0.76628 elapsed seconds
Timing for main: time 2012-10-29_12:51:00 on domain   1:    0.70649 elapsed seconds
Timing for main: time 2012-10-29_12:54:00 on domain   1:    0.77954 elapsed seconds
Timing for main: time 2012-10-29_12:57:00 on domain   1:    0.70302 elapsed seconds
Timing for main: time 2012-10-29_13:00:00 on domain   1:    0.70597 elapsed seconds
Timing for Writing wrfout_d01_2012-10-29_13:00:00 for domain        1:    0.85418 elapsed seconds
Timing for main: time 2012-10-29_13:03:00 on domain   1:    2.18482 elapsed seconds
Timing for main: time 2012-10-29_13:06:00 on domain   1:    0.77488 elapsed seconds
Timing for main: time 2012-10-29_13:09:00 on domain   1:    0.70683 elapsed seconds
Timing for main: time 2012-10-29_13:12:00 on domain   1:    0.74699 elapsed seconds
Timing for main: time 2012-10-29_13:15:00 on domain   1:    0.57906 elapsed seconds
Timing for main: time 2012-10-29_13:18:00 on domain   1:    0.75960 elapsed seconds
Timing for main: time 2012-10-29_13:21:00 on domain   1:    0.70513 elapsed seconds
Timing for main: time 2012-10-29_13:24:00 on domain   1:    0.78684 elapsed seconds
Timing for main: time 2012-10-29_13:27:00 on domain   1:    0.61407 elapsed seconds
Timing for main: time 2012-10-29_13:30:00 on domain   1:    0.63773 elapsed seconds
Timing for Writing wrfout_d01_2012-10-29_13:30:00 for domain        1:    1.18474 elapsed seconds
Timing for main: time 2012-10-29_13:33:00 on domain   1:    2.56730 elapsed seconds
Timing for main: time 2012-10-29_13:36:00 on domain   1:    0.64443 elapsed seconds
Timing for main: time 2012-10-29_13:39:00 on domain   1:    0.60611 elapsed seconds
Timing for main: time 2012-10-29_13:42:00 on domain   1:    0.64084 elapsed seconds
Timing for main: time 2012-10-29_13:45:00 on domain   1:    0.58879 elapsed seconds
Timing for main: time 2012-10-29_13:48:00 on domain   1:    0.77348 elapsed seconds
Timing for main: time 2012-10-29_13:51:00 on domain   1:    0.70249 elapsed seconds
Timing for main: time 2012-10-29_13:54:00 on domain   1:    0.77815 elapsed seconds
Timing for main: time 2012-10-29_13:57:00 on domain   1:    0.70422 elapsed seconds
Timing for main: time 2012-10-29_14:00:00 on domain   1:    0.66689 elapsed seconds
Timing for Writing wrfout_d01_2012-10-29_14:00:00 for domain        1:    0.84861 elapsed seconds
Timing for main: time 2012-10-29_14:03:00 on domain   1:    2.22553 elapsed seconds
Timing for main: time 2012-10-29_14:06:00 on domain   1:    0.77799 elapsed seconds
Timing for main: time 2012-10-29_14:09:00 on domain   1:    0.70353 elapsed seconds
Timing for main: time 2012-10-29_14:12:00 on domain   1:    0.69282 elapsed seconds
Timing for main: time 2012-10-29_14:15:00 on domain   1:    0.58778 elapsed seconds
Timing for main: time 2012-10-29_14:18:00 on domain   1:    0.77966 elapsed seconds
Timing for main: time 2012-10-29_14:21:00 on domain   1:    0.70398 elapsed seconds
Timing for main: time 2012-10-29_14:24:00 on domain   1:    0.77918 elapsed seconds
Timing for main: time 2012-10-29_14:27:00 on domain   1:    0.56673 elapsed seconds
Timing for main: time 2012-10-29_14:30:00 on domain   1:    0.61424 elapsed seconds
Timing for Writing wrfout_d01_2012-10-29_14:30:00 for domain        1:    0.83739 elapsed seconds
Timing for main: time 2012-10-29_14:33:00 on domain   1:    2.15010 elapsed seconds
Timing for main: time 2012-10-29_14:36:00 on domain   1:    0.78066 elapsed seconds
Timing for main: time 2012-10-29_14:39:00 on domain   1:    0.66609 elapsed seconds
Timing for main: time 2012-10-29_14:42:00 on domain   1:    0.64467 elapsed seconds
Timing for main: time 2012-10-29_14:45:00 on domain   1:    0.58008 elapsed seconds
Timing for main: time 2012-10-29_14:48:00 on domain   1:    0.70793 elapsed seconds
Timing for main: time 2012-10-29_14:51:00 on domain   1:    0.63468 elapsed seconds
Timing for main: time 2012-10-29_14:54:00 on domain   1:    0.68715 elapsed seconds
Timing for main: time 2012-10-29_14:57:00 on domain   1:    0.63639 elapsed seconds
Timing for main: time 2012-10-29_15:00:00 on domain   1:    0.64179 elapsed seconds
Timing for Writing wrfout_d01_2012-10-29_15:00:00 for domain        1:    0.85308 elapsed seconds
Timing for main: time 2012-10-29_15:03:00 on domain   1:    2.13376 elapsed seconds
Timing for main: time 2012-10-29_15:06:00 on domain   1:    0.77934 elapsed seconds
Timing for main: time 2012-10-29_15:09:00 on domain   1:    0.70609 elapsed seconds
Timing for main: time 2012-10-29_15:12:00 on domain   1:    0.77961 elapsed seconds
Timing for main: time 2012-10-29_15:15:00 on domain   1:    0.59605 elapsed seconds
Timing for main: time 2012-10-29_15:18:00 on domain   1:    0.62045 elapsed seconds
Timing for main: time 2012-10-29_15:21:00 on domain   1:    0.56223 elapsed seconds
Timing for main: time 2012-10-29_15:24:00 on domain   1:    0.61437 elapsed seconds
Timing for main: time 2012-10-29_15:27:00 on domain   1:    0.55870 elapsed seconds
Timing for main: time 2012-10-29_15:30:00 on domain   1:    0.61689 elapsed seconds
Timing for Writing wrfout_d01_2012-10-29_15:30:00 for domain        1:    0.85692 elapsed seconds
Timing for main: time 2012-10-29_15:33:00 on domain   1:    2.38508 elapsed seconds
Timing for main: time 2012-10-29_15:36:00 on domain   1:    0.67566 elapsed seconds
Timing for main: time 2012-10-29_15:39:00 on domain   1:    0.56071 elapsed seconds
Timing for main: time 2012-10-29_15:42:00 on domain   1:    0.62292 elapsed seconds
Timing for main: time 2012-10-29_15:45:00 on domain   1:    0.70495 elapsed seconds
Timing for main: time 2012-10-29_15:48:00 on domain   1:    0.77807 elapsed seconds
Timing for main: time 2012-10-29_15:51:00 on domain   1:    0.70592 elapsed seconds
Timing for main: time 2012-10-29_15:54:00 on domain   1:    0.77935 elapsed seconds
Timing for main: time 2012-10-29_15:57:00 on domain   1:    0.59660 elapsed seconds
Timing for main: time 2012-10-29_16:00:00 on domain   1:    0.61229 elapsed seconds
Timing for Writing wrfout_d01_2012-10-29_16:00:00 for domain        1:    4.48735 elapsed seconds
Timing for main: time 2012-10-29_16:03:00 on domain   1:    5.67583 elapsed seconds
Timing for main: time 2012-10-29_16:06:00 on domain   1:    0.61841 elapsed seconds
Timing for main: time 2012-10-29_16:09:00 on domain   1:    0.56791 elapsed seconds
Timing for main: time 2012-10-29_16:12:00 on domain   1:    0.61727 elapsed seconds
Timing for main: time 2012-10-29_16:15:00 on domain   1:    0.56179 elapsed seconds
Timing for main: time 2012-10-29_16:18:00 on domain   1:    0.61812 elapsed seconds
Timing for main: time 2012-10-29_16:21:00 on domain   1:    0.56205 elapsed seconds
Timing for main: time 2012-10-29_16:24:00 on domain   1:    0.75117 elapsed seconds
Timing for main: time 2012-10-29_16:27:00 on domain   1:    0.70670 elapsed seconds
Timing for main: time 2012-10-29_16:30:00 on domain   1:    0.74102 elapsed seconds
Timing for Writing wrfout_d01_2012-10-29_16:30:00 for domain        1:    0.82973 elapsed seconds
Timing for main: time 2012-10-29_16:33:00 on domain   1:    2.20792 elapsed seconds
Timing for main: time 2012-10-29_16:36:00 on domain   1:    0.77984 elapsed seconds
Timing for main: time 2012-10-29_16:39:00 on domain   1:    0.70970 elapsed seconds
Timing for main: time 2012-10-29_16:42:00 on domain   1:    0.77696 elapsed seconds
Timing for main: time 2012-10-29_16:45:00 on domain   1:    0.66345 elapsed seconds
Timing for main: time 2012-10-29_16:48:00 on domain   1:    0.63735 elapsed seconds
Timing for main: time 2012-10-29_16:51:00 on domain   1:    0.57909 elapsed seconds
Timing for main: time 2012-10-29_16:54:00 on domain   1:    0.73491 elapsed seconds
Timing for main: time 2012-10-29_16:57:00 on domain   1:    0.71333 elapsed seconds
Timing for main: time 2012-10-29_17:00:00 on domain   1:    0.78394 elapsed seconds
Timing for Writing wrfout_d01_2012-10-29_17:00:00 for domain        1:    0.96902 elapsed seconds
Timing for main: time 2012-10-29_17:03:00 on domain   1:    2.42724 elapsed seconds
Timing for main: time 2012-10-29_17:06:00 on domain   1:    0.78531 elapsed seconds
Timing for main: time 2012-10-29_17:09:00 on domain   1:    0.64016 elapsed seconds
Timing for main: time 2012-10-29_17:12:00 on domain   1:    0.63976 elapsed seconds
Timing for main: time 2012-10-29_17:15:00 on domain   1:    0.58915 elapsed seconds
Timing for main: time 2012-10-29_17:18:00 on domain   1:    0.63385 elapsed seconds
Timing for main: time 2012-10-29_17:21:00 on domain   1:    0.57831 elapsed seconds
Timing for main: time 2012-10-29_17:24:00 on domain   1:    0.74708 elapsed seconds
Timing for main: time 2012-10-29_17:27:00 on domain   1:    0.71333 elapsed seconds
Timing for main: time 2012-10-29_17:30:00 on domain   1:    0.78747 elapsed seconds
Timing for Writing wrfout_d01_2012-10-29_17:30:00 for domain        1:    1.08669 elapsed seconds
Timing for main: time 2012-10-29_17:33:00 on domain   1:    2.35040 elapsed seconds
Timing for main: time 2012-10-29_17:36:00 on domain   1:    0.62877 elapsed seconds
Timing for main: time 2012-10-29_17:39:00 on domain   1:    0.69308 elapsed seconds
Timing for main: time 2012-10-29_17:42:00 on domain   1:    0.78664 elapsed seconds
Timing for main: time 2012-10-29_17:45:00 on domain   1:    0.71364 elapsed seconds
Timing for main: time 2012-10-29_17:48:00 on domain   1:    0.76241 elapsed seconds
Timing for main: time 2012-10-29_17:51:00 on domain   1:    0.59399 elapsed seconds
Timing for main: time 2012-10-29_17:54:00 on domain   1:    0.79899 elapsed seconds
Timing for main: time 2012-10-29_17:57:00 on domain   1:    0.73146 elapsed seconds
Timing for main: time 2012-10-29_18:00:00 on domain   1:    0.79331 elapsed seconds
Timing for Writing wrfout_d01_2012-10-29_18:00:00 for domain        1:    0.93310 elapsed seconds
 Input data is acceptable to use: wrflowinp_d01
Input data processed for aux input   4 for domain   1
 Input data is acceptable to use: wrfbdy_d01
Timing for processing lateral boundary for domain        1:    0.02781 elapsed seconds
Timing for main: time 2012-10-29_18:03:00 on domain   1:    2.19950 elapsed seconds
Timing for main: time 2012-10-29_18:06:00 on domain   1:    0.63162 elapsed seconds
Timing for main: time 2012-10-29_18:09:00 on domain   1:    0.57745 elapsed seconds
Timing for main: time 2012-10-29_18:12:00 on domain   1:    0.65392 elapsed seconds
Timing for main: time 2012-10-29_18:15:00 on domain   1:    0.57753 elapsed seconds
Timing for main: time 2012-10-29_18:18:00 on domain   1:    0.63025 elapsed seconds
Timing for main: time 2012-10-29_18:21:00 on domain   1:    0.57608 elapsed seconds
Timing for main: time 2012-10-29_18:24:00 on domain   1:    0.73880 elapsed seconds
Timing for main: time 2012-10-29_18:27:00 on domain   1:    0.72071 elapsed seconds
Timing for main: time 2012-10-29_18:30:00 on domain   1:    0.78786 elapsed seconds
Timing for Writing wrfout_d01_2012-10-29_18:30:00 for domain        1:    1.08914 elapsed seconds
Timing for main: time 2012-10-29_18:33:00 on domain   1:    2.57160 elapsed seconds
Timing for main: time 2012-10-29_18:36:00 on domain   1:    0.79372 elapsed seconds
Timing for main: time 2012-10-29_18:39:00 on domain   1:    0.73319 elapsed seconds
Timing for main: time 2012-10-29_18:42:00 on domain   1:    0.73510 elapsed seconds
Timing for main: time 2012-10-29_18:45:00 on domain   1:    0.66392 elapsed seconds
Timing for main: time 2012-10-29_18:48:00 on domain   1:    0.63849 elapsed seconds
Timing for main: time 2012-10-29_18:51:00 on domain   1:    0.61927 elapsed seconds
Timing for main: time 2012-10-29_18:54:00 on domain   1:    0.64659 elapsed seconds
Timing for main: time 2012-10-29_18:57:00 on domain   1:    0.62930 elapsed seconds
Timing for main: time 2012-10-29_19:00:00 on domain   1:    0.67329 elapsed seconds
Timing for Writing wrfout_d01_2012-10-29_19:00:00 for domain        1:    0.83894 elapsed seconds
Timing for main: time 2012-10-29_19:03:00 on domain   1:    2.27721 elapsed seconds
Timing for main: time 2012-10-29_19:06:00 on domain   1:    0.78791 elapsed seconds
Timing for main: time 2012-10-29_19:09:00 on domain   1:    0.61622 elapsed seconds
Timing for main: time 2012-10-29_19:12:00 on domain   1:    0.62181 elapsed seconds
Timing for main: time 2012-10-29_19:15:00 on domain   1:    0.60081 elapsed seconds
Timing for main: time 2012-10-29_19:18:00 on domain   1:    0.69155 elapsed seconds
Timing for main: time 2012-10-29_19:21:00 on domain   1:    0.60622 elapsed seconds
Timing for main: time 2012-10-29_19:24:00 on domain   1:    0.75311 elapsed seconds
Timing for main: time 2012-10-29_19:27:00 on domain   1:    0.71807 elapsed seconds
Timing for main: time 2012-10-29_19:30:00 on domain   1:    0.80049 elapsed seconds
Timing for Writing wrfout_d01_2012-10-29_19:30:00 for domain        1:    1.09187 elapsed seconds
Timing for main: time 2012-10-29_19:33:00 on domain   1:    2.39359 elapsed seconds
Timing for main: time 2012-10-29_19:36:00 on domain   1:    0.68499 elapsed seconds
Timing for main: time 2012-10-29_19:39:00 on domain   1:    0.75861 elapsed seconds
Timing for main: time 2012-10-29_19:42:00 on domain   1:    0.80886 elapsed seconds
Timing for main: time 2012-10-29_19:45:00 on domain   1:    0.72750 elapsed seconds
Timing for main: time 2012-10-29_19:48:00 on domain   1:    0.70725 elapsed seconds
Timing for main: time 2012-10-29_19:51:00 on domain   1:    0.58914 elapsed seconds
Timing for main: time 2012-10-29_19:54:00 on domain   1:    0.64393 elapsed seconds
Timing for main: time 2012-10-29_19:57:00 on domain   1:    0.60518 elapsed seconds
Timing for main: time 2012-10-29_20:00:00 on domain   1:    0.76360 elapsed seconds
Timing for Writing wrfout_d01_2012-10-29_20:00:00 for domain        1:    1.09027 elapsed seconds
Timing for main: time 2012-10-29_20:03:00 on domain   1:    2.43733 elapsed seconds
Timing for main: time 2012-10-29_20:06:00 on domain   1:    0.68887 elapsed seconds
Timing for main: time 2012-10-29_20:09:00 on domain   1:    0.71806 elapsed seconds
Timing for main: time 2012-10-29_20:12:00 on domain   1:    0.80335 elapsed seconds
Timing for main: time 2012-10-29_20:15:00 on domain   1:    0.62338 elapsed seconds
Timing for main: time 2012-10-29_20:18:00 on domain   1:    0.69019 elapsed seconds
Timing for main: time 2012-10-29_20:21:00 on domain   1:    0.61118 elapsed seconds
Timing for main: time 2012-10-29_20:24:00 on domain   1:    0.64949 elapsed seconds
Timing for main: time 2012-10-29_20:27:00 on domain   1:    0.59168 elapsed seconds
Timing for main: time 2012-10-29_20:30:00 on domain   1:    0.71366 elapsed seconds
Timing for Writing wrfout_d01_2012-10-29_20:30:00 for domain        1:    1.08411 elapsed seconds
Timing for main: time 2012-10-29_20:33:00 on domain   1:    2.60897 elapsed seconds
Timing for main: time 2012-10-29_20:36:00 on domain   1:    0.64412 elapsed seconds
Timing for main: time 2012-10-29_20:39:00 on domain   1:    0.57630 elapsed seconds
Timing for main: time 2012-10-29_20:42:00 on domain   1:    0.63818 elapsed seconds
Timing for main: time 2012-10-29_20:45:00 on domain   1:    0.67276 elapsed seconds
Timing for main: time 2012-10-29_20:48:00 on domain   1:    0.79096 elapsed seconds
Timing for main: time 2012-10-29_20:51:00 on domain   1:    0.72249 elapsed seconds
Timing for main: time 2012-10-29_20:54:00 on domain   1:    0.74005 elapsed seconds
Timing for main: time 2012-10-29_20:57:00 on domain   1:    0.61094 elapsed seconds
Timing for main: time 2012-10-29_21:00:00 on domain   1:    0.75305 elapsed seconds
Timing for Writing wrfout_d01_2012-10-29_21:00:00 for domain        1:    1.10184 elapsed seconds
Timing for main: time 2012-10-29_21:03:00 on domain   1:    2.44078 elapsed seconds
Timing for main: time 2012-10-29_21:06:00 on domain   1:    0.66341 elapsed seconds
Timing for main: time 2012-10-29_21:09:00 on domain   1:    0.61242 elapsed seconds
Timing for main: time 2012-10-29_21:12:00 on domain   1:    0.65962 elapsed seconds
Timing for main: time 2012-10-29_21:15:00 on domain   1:    0.60720 elapsed seconds
Timing for main: time 2012-10-29_21:18:00 on domain   1:    0.66150 elapsed seconds
Timing for main: time 2012-10-29_21:21:00 on domain   1:    0.59727 elapsed seconds
Timing for main: time 2012-10-29_21:24:00 on domain   1:    0.71818 elapsed seconds
Timing for main: time 2012-10-29_21:27:00 on domain   1:    0.72453 elapsed seconds
Timing for main: time 2012-10-29_21:30:00 on domain   1:    0.79657 elapsed seconds
Timing for Writing wrfout_d01_2012-10-29_21:30:00 for domain        1:    1.05439 elapsed seconds
Timing for main: time 2012-10-29_21:33:00 on domain   1:    2.50606 elapsed seconds
Timing for main: time 2012-10-29_21:36:00 on domain   1:    0.79580 elapsed seconds
Timing for main: time 2012-10-29_21:39:00 on domain   1:    0.72599 elapsed seconds
Timing for main: time 2012-10-29_21:42:00 on domain   1:    0.66175 elapsed seconds
Timing for main: time 2012-10-29_21:45:00 on domain   1:    0.58267 elapsed seconds
Timing for main: time 2012-10-29_21:48:00 on domain   1:    0.67614 elapsed seconds
Timing for main: time 2012-10-29_21:51:00 on domain   1:    0.62238 elapsed seconds
Timing for main: time 2012-10-29_21:54:00 on domain   1:    0.77018 elapsed seconds
Timing for main: time 2012-10-29_21:57:00 on domain   1:    0.72249 elapsed seconds
Timing for main: time 2012-10-29_22:00:00 on domain   1:    0.79568 elapsed seconds
Timing for Writing wrfout_d01_2012-10-29_22:00:00 for domain        1:    0.89781 elapsed seconds
Timing for main: time 2012-10-29_22:03:00 on domain   1:    2.35463 elapsed seconds
Timing for main: time 2012-10-29_22:06:00 on domain   1:    0.79283 elapsed seconds
Timing for main: time 2012-10-29_22:09:00 on domain   1:    0.73684 elapsed seconds
Timing for main: time 2012-10-29_22:12:00 on domain   1:    0.80830 elapsed seconds
Timing for main: time 2012-10-29_22:15:00 on domain   1:    0.63638 elapsed seconds
Timing for main: time 2012-10-29_22:18:00 on domain   1:    0.69648 elapsed seconds
Timing for main: time 2012-10-29_22:21:00 on domain   1:    0.64943 elapsed seconds
Timing for main: time 2012-10-29_22:24:00 on domain   1:    0.67860 elapsed seconds
Timing for main: time 2012-10-29_22:27:00 on domain   1:    0.60496 elapsed seconds
Timing for main: time 2012-10-29_22:30:00 on domain   1:    0.77891 elapsed seconds
Timing for Writing wrfout_d01_2012-10-29_22:30:00 for domain        1:    1.11563 elapsed seconds
Timing for main: time 2012-10-29_22:33:00 on domain   1:    2.55848 elapsed seconds
Timing for main: time 2012-10-29_22:36:00 on domain   1:    0.66279 elapsed seconds
Timing for main: time 2012-10-29_22:39:00 on domain   1:    0.57590 elapsed seconds
Timing for main: time 2012-10-29_22:42:00 on domain   1:    0.63255 elapsed seconds
Timing for main: time 2012-10-29_22:45:00 on domain   1:    0.69693 elapsed seconds
Timing for main: time 2012-10-29_22:48:00 on domain   1:    0.79592 elapsed seconds
Timing for main: time 2012-10-29_22:51:00 on domain   1:    0.72244 elapsed seconds
Timing for main: time 2012-10-29_22:54:00 on domain   1:    0.63571 elapsed seconds
Timing for main: time 2012-10-29_22:57:00 on domain   1:    0.57355 elapsed seconds
Timing for main: time 2012-10-29_23:00:00 on domain   1:    0.79431 elapsed seconds
Timing for Writing wrfout_d01_2012-10-29_23:00:00 for domain        1:    1.08459 elapsed seconds
Timing for main: time 2012-10-29_23:03:00 on domain   1:    2.36197 elapsed seconds
Timing for main: time 2012-10-29_23:06:00 on domain   1:    0.66675 elapsed seconds
Timing for main: time 2012-10-29_23:09:00 on domain   1:    0.67423 elapsed seconds
Timing for main: time 2012-10-29_23:12:00 on domain   1:    0.70612 elapsed seconds
Timing for main: time 2012-10-29_23:15:00 on domain   1:    0.72601 elapsed seconds
Timing for main: time 2012-10-29_23:18:00 on domain   1:    0.80717 elapsed seconds
Timing for main: time 2012-10-29_23:21:00 on domain   1:    0.80006 elapsed seconds
Timing for main: time 2012-10-29_23:24:00 on domain   1:    0.78168 elapsed seconds
Timing for main: time 2012-10-29_23:27:00 on domain   1:    0.66513 elapsed seconds
Timing for main: time 2012-10-29_23:30:00 on domain   1:    0.73794 elapsed seconds
Timing for Writing wrfout_d01_2012-10-29_23:30:00 for domain        1:    1.16234 elapsed seconds
Timing for main: time 2012-10-29_23:33:00 on domain   1:    2.76503 elapsed seconds
Timing for main: time 2012-10-29_23:36:00 on domain   1:    0.79157 elapsed seconds
Timing for main: time 2012-10-29_23:39:00 on domain   1:    0.65305 elapsed seconds
Timing for main: time 2012-10-29_23:42:00 on domain   1:    0.70679 elapsed seconds
Timing for main: time 2012-10-29_23:45:00 on domain   1:    0.68422 elapsed seconds
Timing for main: time 2012-10-29_23:48:00 on domain   1:    0.70530 elapsed seconds
Timing for main: time 2012-10-29_23:51:00 on domain   1:    0.68270 elapsed seconds
Timing for main: time 2012-10-29_23:54:00 on domain   1:    0.71001 elapsed seconds
Timing for main: time 2012-10-29_23:57:00 on domain   1:    0.62798 elapsed seconds
Timing for main: time 2012-10-30_00:00:00 on domain   1:    0.66573 elapsed seconds
Timing for Writing wrfout_d01_2012-10-30_00:00:00 for domain        1:    0.97295 elapsed seconds
 Input data is acceptable to use: wrflowinp_d01
Input data processed for aux input   4 for domain   1
 Input data is acceptable to use: wrfbdy_d01
Timing for processing lateral boundary for domain        1:    0.02988 elapsed seconds
Timing for main: time 2012-10-30_00:03:00 on domain   1:    2.34438 elapsed seconds
Timing for main: time 2012-10-30_00:06:00 on domain   1:    0.70008 elapsed seconds
Timing for main: time 2012-10-30_00:09:00 on domain   1:    0.69035 elapsed seconds
Timing for main: time 2012-10-30_00:12:00 on domain   1:    0.82172 elapsed seconds
Timing for main: time 2012-10-30_00:15:00 on domain   1:    0.75877 elapsed seconds
Timing for main: time 2012-10-30_00:18:00 on domain   1:    0.85810 elapsed seconds
Timing for main: time 2012-10-30_00:21:00 on domain   1:    0.71729 elapsed seconds
Timing for main: time 2012-10-30_00:24:00 on domain   1:    0.82936 elapsed seconds
Timing for main: time 2012-10-30_00:27:00 on domain   1:    0.74047 elapsed seconds
Timing for main: time 2012-10-30_00:30:00 on domain   1:    0.81043 elapsed seconds
Timing for Writing wrfout_d01_2012-10-30_00:30:00 for domain        1:    0.95448 elapsed seconds
Timing for main: time 2012-10-30_00:33:00 on domain   1:    2.46813 elapsed seconds
Timing for main: time 2012-10-30_00:36:00 on domain   1:    0.80117 elapsed seconds
Timing for main: time 2012-10-30_00:39:00 on domain   1:    0.61256 elapsed seconds
Timing for main: time 2012-10-30_00:42:00 on domain   1:    0.77251 elapsed seconds
Timing for main: time 2012-10-30_00:45:00 on domain   1:    0.78987 elapsed seconds
Timing for main: time 2012-10-30_00:48:00 on domain   1:    0.82184 elapsed seconds
Timing for main: time 2012-10-30_00:51:00 on domain   1:    0.62742 elapsed seconds
Timing for main: time 2012-10-30_00:54:00 on domain   1:    0.68815 elapsed seconds
Timing for main: time 2012-10-30_00:57:00 on domain   1:    0.62322 elapsed seconds
Timing for main: time 2012-10-30_01:00:00 on domain   1:    0.73133 elapsed seconds
Timing for Writing wrfout_d01_2012-10-30_01:00:00 for domain        1:    0.90001 elapsed seconds
Timing for main: time 2012-10-30_01:03:00 on domain   1:    2.29346 elapsed seconds
Timing for main: time 2012-10-30_01:06:00 on domain   1:    0.84444 elapsed seconds
Timing for main: time 2012-10-30_01:09:00 on domain   1:    0.74764 elapsed seconds
Timing for main: time 2012-10-30_01:12:00 on domain   1:    0.84494 elapsed seconds
Timing for main: time 2012-10-30_01:15:00 on domain   1:    0.66447 elapsed seconds
Timing for main: time 2012-10-30_01:18:00 on domain   1:    0.71299 elapsed seconds
Timing for main: time 2012-10-30_01:21:00 on domain   1:    0.73028 elapsed seconds
Timing for main: time 2012-10-30_01:24:00 on domain   1:    0.80726 elapsed seconds
Timing for main: time 2012-10-30_01:27:00 on domain   1:    0.71279 elapsed seconds
Timing for main: time 2012-10-30_01:30:00 on domain   1:    0.68882 elapsed seconds
Timing for Writing wrfout_d01_2012-10-30_01:30:00 for domain        1:    0.90047 elapsed seconds
Timing for main: time 2012-10-30_01:33:00 on domain   1:    2.20190 elapsed seconds
Timing for main: time 2012-10-30_01:36:00 on domain   1:    0.80243 elapsed seconds
Timing for main: time 2012-10-30_01:39:00 on domain   1:    0.72964 elapsed seconds
Timing for main: time 2012-10-30_01:42:00 on domain   1:    0.65630 elapsed seconds
Timing for main: time 2012-10-30_01:45:00 on domain   1:    0.58729 elapsed seconds
Timing for main: time 2012-10-30_01:48:00 on domain   1:    0.63949 elapsed seconds
Timing for main: time 2012-10-30_01:51:00 on domain   1:    0.58434 elapsed seconds
Timing for main: time 2012-10-30_01:54:00 on domain   1:    0.64086 elapsed seconds
Timing for main: time 2012-10-30_01:57:00 on domain   1:    0.68963 elapsed seconds
Timing for main: time 2012-10-30_02:00:00 on domain   1:    0.80843 elapsed seconds
Timing for Writing wrfout_d01_2012-10-30_02:00:00 for domain        1:    1.10122 elapsed seconds
Timing for main: time 2012-10-30_02:03:00 on domain   1:    2.46205 elapsed seconds
Timing for main: time 2012-10-30_02:06:00 on domain   1:    0.66027 elapsed seconds
Timing for main: time 2012-10-30_02:09:00 on domain   1:    0.63741 elapsed seconds
Timing for main: time 2012-10-30_02:12:00 on domain   1:    0.75857 elapsed seconds
Timing for main: time 2012-10-30_02:15:00 on domain   1:    0.73278 elapsed seconds
Timing for main: time 2012-10-30_02:18:00 on domain   1:    0.81192 elapsed seconds
Timing for main: time 2012-10-30_02:21:00 on domain   1:    0.68849 elapsed seconds
Timing for main: time 2012-10-30_02:24:00 on domain   1:    0.74240 elapsed seconds
Timing for main: time 2012-10-30_02:27:00 on domain   1:    0.71658 elapsed seconds
Timing for main: time 2012-10-30_02:30:00 on domain   1:    0.72783 elapsed seconds
Timing for Writing wrfout_d01_2012-10-30_02:30:00 for domain        1:    1.01042 elapsed seconds
Timing for main: time 2012-10-30_02:33:00 on domain   1:    2.45877 elapsed seconds
Timing for main: time 2012-10-30_02:36:00 on domain   1:    0.84007 elapsed seconds
Timing for main: time 2012-10-30_02:39:00 on domain   1:    0.67006 elapsed seconds
Timing for main: time 2012-10-30_02:42:00 on domain   1:    0.67040 elapsed seconds
Timing for main: time 2012-10-30_02:45:00 on domain   1:    0.65918 elapsed seconds
Timing for main: time 2012-10-30_02:48:00 on domain   1:    0.80943 elapsed seconds
Timing for main: time 2012-10-30_02:51:00 on domain   1:    0.73503 elapsed seconds
Timing for main: time 2012-10-30_02:54:00 on domain   1:    0.80980 elapsed seconds
Timing for main: time 2012-10-30_02:57:00 on domain   1:    0.70023 elapsed seconds
Timing for main: time 2012-10-30_03:00:00 on domain   1:    0.63678 elapsed seconds
Timing for Writing wrfout_d01_2012-10-30_03:00:00 for domain        1:    0.83921 elapsed seconds
Timing for main: time 2012-10-30_03:03:00 on domain   1:    2.23299 elapsed seconds
Timing for main: time 2012-10-30_03:06:00 on domain   1:    0.80565 elapsed seconds
Timing for main: time 2012-10-30_03:09:00 on domain   1:    0.73421 elapsed seconds
Timing for main: time 2012-10-30_03:12:00 on domain   1:    0.69463 elapsed seconds
Timing for main: time 2012-10-30_03:15:00 on domain   1:    0.62810 elapsed seconds
Timing for main: time 2012-10-30_03:18:00 on domain   1:    0.71668 elapsed seconds
Timing for main: time 2012-10-30_03:21:00 on domain   1:    0.65002 elapsed seconds
Timing for main: time 2012-10-30_03:24:00 on domain   1:    0.84391 elapsed seconds
Timing for main: time 2012-10-30_03:27:00 on domain   1:    0.79465 elapsed seconds
Timing for main: time 2012-10-30_03:30:00 on domain   1:    0.81678 elapsed seconds
Timing for Writing wrfout_d01_2012-10-30_03:30:00 for domain        1:    2.90150 elapsed seconds
Timing for main: time 2012-10-30_03:33:00 on domain   1:    4.25654 elapsed seconds
Timing for main: time 2012-10-30_03:36:00 on domain   1:    0.68088 elapsed seconds
Timing for main: time 2012-10-30_03:39:00 on domain   1:    0.65355 elapsed seconds
Timing for main: time 2012-10-30_03:42:00 on domain   1:    0.71467 elapsed seconds
Timing for main: time 2012-10-30_03:45:00 on domain   1:    0.61046 elapsed seconds
Timing for main: time 2012-10-30_03:48:00 on domain   1:    0.68240 elapsed seconds
Timing for main: time 2012-10-30_03:51:00 on domain   1:    0.68339 elapsed seconds
Timing for main: time 2012-10-30_03:54:00 on domain   1:    0.80545 elapsed seconds
Timing for main: time 2012-10-30_03:57:00 on domain   1:    0.73618 elapsed seconds
Timing for main: time 2012-10-30_04:00:00 on domain   1:    0.78765 elapsed seconds
Timing for Writing wrfout_d01_2012-10-30_04:00:00 for domain        1:    1.01109 elapsed seconds
Timing for main: time 2012-10-30_04:03:00 on domain   1:    2.55306 elapsed seconds
Timing for main: time 2012-10-30_04:06:00 on domain   1:    0.71857 elapsed seconds
Timing for main: time 2012-10-30_04:09:00 on domain   1:    0.63293 elapsed seconds
Timing for main: time 2012-10-30_04:12:00 on domain   1:    0.68006 elapsed seconds
Timing for main: time 2012-10-30_04:15:00 on domain   1:    0.61666 elapsed seconds
Timing for main: time 2012-10-30_04:18:00 on domain   1:    0.68160 elapsed seconds
Timing for main: time 2012-10-30_04:21:00 on domain   1:    0.62552 elapsed seconds
Timing for main: time 2012-10-30_04:24:00 on domain   1:    0.68806 elapsed seconds
Timing for main: time 2012-10-30_04:27:00 on domain   1:    0.63459 elapsed seconds
Timing for main: time 2012-10-30_04:30:00 on domain   1:    0.67769 elapsed seconds
Timing for Writing wrfout_d01_2012-10-30_04:30:00 for domain        1:    0.88758 elapsed seconds
Timing for main: time 2012-10-30_04:33:00 on domain   1:    2.20860 elapsed seconds
Timing for main: time 2012-10-30_04:36:00 on domain   1:    0.68034 elapsed seconds
Timing for main: time 2012-10-30_04:39:00 on domain   1:    0.61666 elapsed seconds
Timing for main: time 2012-10-30_04:42:00 on domain   1:    0.67755 elapsed seconds
Timing for main: time 2012-10-30_04:45:00 on domain   1:    0.63364 elapsed seconds
Timing for main: time 2012-10-30_04:48:00 on domain   1:    0.69076 elapsed seconds
Timing for main: time 2012-10-30_04:51:00 on domain   1:    0.71602 elapsed seconds
Timing for main: time 2012-10-30_04:54:00 on domain   1:    0.81769 elapsed seconds
Timing for main: time 2012-10-30_04:57:00 on domain   1:    0.74090 elapsed seconds
Timing for main: time 2012-10-30_05:00:00 on domain   1:    0.74553 elapsed seconds
Timing for Writing wrfout_d01_2012-10-30_05:00:00 for domain        1:    0.87451 elapsed seconds
Timing for main: time 2012-10-30_05:03:00 on domain   1:    2.11658 elapsed seconds
Timing for main: time 2012-10-30_05:06:00 on domain   1:    0.76160 elapsed seconds
Timing for main: time 2012-10-30_05:09:00 on domain   1:    0.73480 elapsed seconds
Timing for main: time 2012-10-30_05:12:00 on domain   1:    0.80780 elapsed seconds
Timing for main: time 2012-10-30_05:15:00 on domain   1:    0.61034 elapsed seconds
Timing for main: time 2012-10-30_05:18:00 on domain   1:    0.66212 elapsed seconds
Timing for main: time 2012-10-30_05:21:00 on domain   1:    0.71348 elapsed seconds
Timing for main: time 2012-10-30_05:24:00 on domain   1:    0.80810 elapsed seconds
Timing for main: time 2012-10-30_05:27:00 on domain   1:    0.73383 elapsed seconds
Timing for main: time 2012-10-30_05:30:00 on domain   1:    0.80651 elapsed seconds
Timing for Writing wrfout_d01_2012-10-30_05:30:00 for domain        1:    0.93850 elapsed seconds
Timing for main: time 2012-10-30_05:33:00 on domain   1:    2.28825 elapsed seconds
Timing for main: time 2012-10-30_05:36:00 on domain   1:    0.71471 elapsed seconds
Timing for main: time 2012-10-30_05:39:00 on domain   1:    0.69838 elapsed seconds
Timing for main: time 2012-10-30_05:42:00 on domain   1:    0.81510 elapsed seconds
Timing for main: time 2012-10-30_05:45:00 on domain   1:    0.73831 elapsed seconds
Timing for main: time 2012-10-30_05:48:00 on domain   1:    0.80997 elapsed seconds
Timing for main: time 2012-10-30_05:51:00 on domain   1:    0.68512 elapsed seconds
Timing for main: time 2012-10-30_05:54:00 on domain   1:    0.66765 elapsed seconds
Timing for main: time 2012-10-30_05:57:00 on domain   1:    0.61065 elapsed seconds
Timing for main: time 2012-10-30_06:00:00 on domain   1:    0.65623 elapsed seconds
Timing for Writing wrfout_d01_2012-10-30_06:00:00 for domain        1:    4.65322 elapsed seconds
 Input data is acceptable to use: wrflowinp_d01
Input data processed for aux input   4 for domain   1
 Input data is acceptable to use: wrfbdy_d01
Timing for processing lateral boundary for domain        1:    0.02777 elapsed seconds
Timing for main: time 2012-10-30_06:03:00 on domain   1:    6.04974 elapsed seconds
Timing for main: time 2012-10-30_06:06:00 on domain   1:    0.81363 elapsed seconds
Timing for main: time 2012-10-30_06:09:00 on domain   1:    0.74254 elapsed seconds
Timing for main: time 2012-10-30_06:12:00 on domain   1:    0.82340 elapsed seconds
Timing for main: time 2012-10-30_06:15:00 on domain   1:    0.66032 elapsed seconds
Timing for main: time 2012-10-30_06:18:00 on domain   1:    0.69663 elapsed seconds
Timing for main: time 2012-10-30_06:21:00 on domain   1:    0.63710 elapsed seconds
Timing for main: time 2012-10-30_06:24:00 on domain   1:    0.78495 elapsed seconds
Timing for main: time 2012-10-30_06:27:00 on domain   1:    0.74257 elapsed seconds
Timing for main: time 2012-10-30_06:30:00 on domain   1:    0.83721 elapsed seconds
Timing for Writing wrfout_d01_2012-10-30_06:30:00 for domain        1:    0.98035 elapsed seconds
Timing for main: time 2012-10-30_06:33:00 on domain   1:    2.47285 elapsed seconds
Timing for main: time 2012-10-30_06:36:00 on domain   1:    0.85284 elapsed seconds
Timing for main: time 2012-10-30_06:39:00 on domain   1:    0.64424 elapsed seconds
Timing for main: time 2012-10-30_06:42:00 on domain   1:    0.64732 elapsed seconds
Timing for main: time 2012-10-30_06:45:00 on domain   1:    0.71983 elapsed seconds
Timing for main: time 2012-10-30_06:48:00 on domain   1:    0.80968 elapsed seconds
Timing for main: time 2012-10-30_06:51:00 on domain   1:    0.68237 elapsed seconds
Timing for main: time 2012-10-30_06:54:00 on domain   1:    0.64090 elapsed seconds
Timing for main: time 2012-10-30_06:57:00 on domain   1:    0.59194 elapsed seconds
Timing for main: time 2012-10-30_07:00:00 on domain   1:    0.81068 elapsed seconds
Timing for Writing wrfout_d01_2012-10-30_07:00:00 for domain        1:    1.13221 elapsed seconds
Timing for main: time 2012-10-30_07:03:00 on domain   1:    2.63573 elapsed seconds
Timing for main: time 2012-10-30_07:06:00 on domain   1:    0.71586 elapsed seconds
Timing for main: time 2012-10-30_07:09:00 on domain   1:    0.63184 elapsed seconds
Timing for main: time 2012-10-30_07:12:00 on domain   1:    0.74594 elapsed seconds
Timing for main: time 2012-10-30_07:15:00 on domain   1:    0.74743 elapsed seconds
Timing for main: time 2012-10-30_07:18:00 on domain   1:    0.82255 elapsed seconds
Timing for main: time 2012-10-30_07:21:00 on domain   1:    0.75238 elapsed seconds
Timing for main: time 2012-10-30_07:24:00 on domain   1:    0.67802 elapsed seconds
Timing for main: time 2012-10-30_07:27:00 on domain   1:    0.73791 elapsed seconds
Timing for main: time 2012-10-30_07:30:00 on domain   1:    0.81920 elapsed seconds
Timing for Writing wrfout_d01_2012-10-30_07:30:00 for domain        1:    1.03216 elapsed seconds
Timing for main: time 2012-10-30_07:33:00 on domain   1:    2.37914 elapsed seconds
Timing for main: time 2012-10-30_07:36:00 on domain   1:    0.81662 elapsed seconds
Timing for main: time 2012-10-30_07:39:00 on domain   1:    0.75344 elapsed seconds
Timing for main: time 2012-10-30_07:42:00 on domain   1:    0.66797 elapsed seconds
Timing for main: time 2012-10-30_07:45:00 on domain   1:    0.63252 elapsed seconds
Timing for main: time 2012-10-30_07:48:00 on domain   1:    0.83275 elapsed seconds
Timing for main: time 2012-10-30_07:51:00 on domain   1:    0.74842 elapsed seconds
Timing for main: time 2012-10-30_07:54:00 on domain   1:    0.81677 elapsed seconds
Timing for main: time 2012-10-30_07:57:00 on domain   1:    0.74082 elapsed seconds
Timing for main: time 2012-10-30_08:00:00 on domain   1:    0.71957 elapsed seconds
Timing for Writing wrfout_d01_2012-10-30_08:00:00 for domain        1:    0.93968 elapsed seconds
Timing for main: time 2012-10-30_08:03:00 on domain   1:    2.47455 elapsed seconds
Timing for main: time 2012-10-30_08:06:00 on domain   1:    0.82677 elapsed seconds
Timing for main: time 2012-10-30_08:09:00 on domain   1:    0.79428 elapsed seconds
Timing for main: time 2012-10-30_08:12:00 on domain   1:    0.67072 elapsed seconds
Timing for main: time 2012-10-30_08:15:00 on domain   1:    0.78591 elapsed seconds
Timing for main: time 2012-10-30_08:18:00 on domain   1:    0.86650 elapsed seconds
Timing for main: time 2012-10-30_08:21:00 on domain   1:    0.75362 elapsed seconds
Timing for main: time 2012-10-30_08:24:00 on domain   1:    0.67191 elapsed seconds
Timing for main: time 2012-10-30_08:27:00 on domain   1:    0.70547 elapsed seconds
Timing for main: time 2012-10-30_08:30:00 on domain   1:    0.83131 elapsed seconds
Timing for Writing wrfout_d01_2012-10-30_08:30:00 for domain        1:    1.07708 elapsed seconds
Timing for main: time 2012-10-30_08:33:00 on domain   1:    2.36519 elapsed seconds
Timing for main: time 2012-10-30_08:36:00 on domain   1:    0.71903 elapsed seconds
Timing for main: time 2012-10-30_08:39:00 on domain   1:    0.70145 elapsed seconds
Timing for main: time 2012-10-30_08:42:00 on domain   1:    0.83464 elapsed seconds
Timing for main: time 2012-10-30_08:45:00 on domain   1:    0.76790 elapsed seconds
Timing for main: time 2012-10-30_08:48:00 on domain   1:    0.87937 elapsed seconds
Timing for main: time 2012-10-30_08:51:00 on domain   1:    0.78516 elapsed seconds
Timing for main: time 2012-10-30_08:54:00 on domain   1:    0.73683 elapsed seconds
Timing for main: time 2012-10-30_08:57:00 on domain   1:    0.68772 elapsed seconds
Timing for main: time 2012-10-30_09:00:00 on domain   1:    0.76793 elapsed seconds
Timing for Writing wrfout_d01_2012-10-30_09:00:00 for domain        1:    0.89324 elapsed seconds
Timing for main: time 2012-10-30_09:03:00 on domain   1:    2.33890 elapsed seconds
Timing for main: time 2012-10-30_09:06:00 on domain   1:    0.81855 elapsed seconds
Timing for main: time 2012-10-30_09:09:00 on domain   1:    0.74277 elapsed seconds
Timing for main: time 2012-10-30_09:12:00 on domain   1:    0.66053 elapsed seconds
Timing for main: time 2012-10-30_09:15:00 on domain   1:    0.61841 elapsed seconds
Timing for main: time 2012-10-30_09:18:00 on domain   1:    0.70507 elapsed seconds
Timing for main: time 2012-10-30_09:21:00 on domain   1:    0.65934 elapsed seconds
Timing for main: time 2012-10-30_09:24:00 on domain   1:    0.82894 elapsed seconds
Timing for main: time 2012-10-30_09:27:00 on domain   1:    0.74528 elapsed seconds
Timing for main: time 2012-10-30_09:30:00 on domain   1:    0.76836 elapsed seconds
Timing for Writing wrfout_d01_2012-10-30_09:30:00 for domain        1:    0.98553 elapsed seconds
Timing for main: time 2012-10-30_09:33:00 on domain   1:    2.49460 elapsed seconds
Timing for main: time 2012-10-30_09:36:00 on domain   1:    0.81702 elapsed seconds
Timing for main: time 2012-10-30_09:39:00 on domain   1:    0.75746 elapsed seconds
Timing for main: time 2012-10-30_09:42:00 on domain   1:    0.77188 elapsed seconds
Timing for main: time 2012-10-30_09:45:00 on domain   1:    0.66575 elapsed seconds
Timing for main: time 2012-10-30_09:48:00 on domain   1:    0.75675 elapsed seconds
Timing for main: time 2012-10-30_09:51:00 on domain   1:    0.75683 elapsed seconds
Timing for main: time 2012-10-30_09:54:00 on domain   1:    0.83273 elapsed seconds
Timing for main: time 2012-10-30_09:57:00 on domain   1:    0.75829 elapsed seconds
Timing for main: time 2012-10-30_10:00:00 on domain   1:    0.76688 elapsed seconds
Timing for Writing wrfout_d01_2012-10-30_10:00:00 for domain        1:    0.97680 elapsed seconds
Timing for main: time 2012-10-30_10:03:00 on domain   1:    2.36157 elapsed seconds
Timing for main: time 2012-10-30_10:06:00 on domain   1:    0.70241 elapsed seconds
Timing for main: time 2012-10-30_10:09:00 on domain   1:    0.62707 elapsed seconds
Timing for main: time 2012-10-30_10:12:00 on domain   1:    0.82038 elapsed seconds
Timing for main: time 2012-10-30_10:15:00 on domain   1:    0.76831 elapsed seconds
Timing for main: time 2012-10-30_10:18:00 on domain   1:    0.76884 elapsed seconds
Timing for main: time 2012-10-30_10:21:00 on domain   1:    0.60267 elapsed seconds
Timing for main: time 2012-10-30_10:24:00 on domain   1:    0.69983 elapsed seconds
Timing for main: time 2012-10-30_10:27:00 on domain   1:    0.61919 elapsed seconds
Timing for main: time 2012-10-30_10:30:00 on domain   1:    0.69805 elapsed seconds
Timing for Writing wrfout_d01_2012-10-30_10:30:00 for domain        1:    1.07667 elapsed seconds
Timing for main: time 2012-10-30_10:33:00 on domain   1:    2.62868 elapsed seconds
Timing for main: time 2012-10-30_10:36:00 on domain   1:    0.81931 elapsed seconds
Timing for main: time 2012-10-30_10:39:00 on domain   1:    0.61279 elapsed seconds
Timing for main: time 2012-10-30_10:42:00 on domain   1:    0.67996 elapsed seconds
Timing for main: time 2012-10-30_10:45:00 on domain   1:    0.60808 elapsed seconds
Timing for main: time 2012-10-30_10:48:00 on domain   1:    0.77840 elapsed seconds
Timing for main: time 2012-10-30_10:51:00 on domain   1:    0.74619 elapsed seconds
Timing for main: time 2012-10-30_10:54:00 on domain   1:    0.81459 elapsed seconds
Timing for main: time 2012-10-30_10:57:00 on domain   1:    0.68785 elapsed seconds
Timing for main: time 2012-10-30_11:00:00 on domain   1:    0.71632 elapsed seconds
Timing for Writing wrfout_d01_2012-10-30_11:00:00 for domain        1:    0.92418 elapsed seconds
Timing for main: time 2012-10-30_11:03:00 on domain   1:    2.33993 elapsed seconds
Timing for main: time 2012-10-30_11:06:00 on domain   1:    0.81480 elapsed seconds
Timing for main: time 2012-10-30_11:09:00 on domain   1:    0.74902 elapsed seconds
Timing for main: time 2012-10-30_11:12:00 on domain   1:    0.68599 elapsed seconds
Timing for main: time 2012-10-30_11:15:00 on domain   1:    0.61783 elapsed seconds
Timing for main: time 2012-10-30_11:18:00 on domain   1:    0.81274 elapsed seconds
Timing for main: time 2012-10-30_11:21:00 on domain   1:    0.73820 elapsed seconds
Timing for main: time 2012-10-30_11:24:00 on domain   1:    0.69898 elapsed seconds
Timing for main: time 2012-10-30_11:27:00 on domain   1:    0.60187 elapsed seconds
Timing for main: time 2012-10-30_11:30:00 on domain   1:    0.72128 elapsed seconds
Timing for Writing wrfout_d01_2012-10-30_11:30:00 for domain        1:    1.11719 elapsed seconds
Timing for main: time 2012-10-30_11:33:00 on domain   1:    2.67640 elapsed seconds
Timing for main: time 2012-10-30_11:36:00 on domain   1:    0.74927 elapsed seconds
Timing for main: time 2012-10-30_11:39:00 on domain   1:    0.67982 elapsed seconds
Timing for main: time 2012-10-30_11:42:00 on domain   1:    0.72992 elapsed seconds
Timing for main: time 2012-10-30_11:45:00 on domain   1:    0.74922 elapsed seconds
Timing for main: time 2012-10-30_11:48:00 on domain   1:    0.82094 elapsed seconds
Timing for main: time 2012-10-30_11:51:00 on domain   1:    0.74705 elapsed seconds
Timing for main: time 2012-10-30_11:54:00 on domain   1:    0.76323 elapsed seconds
Timing for main: time 2012-10-30_11:57:00 on domain   1:    0.62242 elapsed seconds
Timing for main: time 2012-10-30_12:00:00 on domain   1:    0.68981 elapsed seconds
Timing for Writing wrfout_d01_2012-10-30_12:00:00 for domain        1:    0.89246 elapsed seconds
wrf: SUCCESS COMPLETE WRF
